
---------- Begin Simulation Statistics ----------
final_tick                               117782884000                       # Number of ticks from beginning of simulation (restored from checkpoints and never reset)
host_inst_rate                                 449493                       # Simulator instruction rate (inst/s)
host_mem_usage                                 662816                       # Number of bytes of host memory used
host_op_rate                                   454450                       # Simulator op (including micro ops) rate (op/s)
host_seconds                                   222.47                       # Real time elapsed on the host
host_tick_rate                              529425743                       # Simulator tick rate (ticks/s)
sim_freq                                 1000000000000                       # Frequency of simulated ticks
sim_insts                                   100000000                       # Number of instructions simulated
sim_ops                                     101102730                       # Number of ops (including micro ops) simulated
sim_seconds                                  0.117783                       # Number of seconds simulated
sim_ticks                                117782884000                       # Number of ticks simulated
system.cpu.committedInsts                   100000000                       # Number of instructions committed
system.cpu.committedOps                     101102730                       # Number of ops (including micro ops) committed
system.cpu.cpi                               1.177829                       # CPI: cycles per instruction
system.cpu.discardedOps                        972015                       # Number of ops (including micro ops) which were discarded before commit
system.cpu.idleCycles                         2160528                       # Total number of cycles that the object has spent stopped
system.cpu.ipc                               0.849020                       # IPC: instructions per cycle
system.cpu.numCycles                        117782884                       # number of cpu cycles simulated
system.cpu.numFetchSuspends                         0                       # Number of times Execute suspended instruction fetching
system.cpu.numWorkItemsCompleted                    0                       # number of work items this cpu completed
system.cpu.numWorkItemsStarted                      0                       # number of work items this cpu started
system.cpu.op_class_0::No_OpClass                   0      0.00%      0.00% # Class of committed instruction
system.cpu.op_class_0::IntAlu                55115624     54.51%     54.51% # Class of committed instruction
system.cpu.op_class_0::IntMult                 167845      0.17%     54.68% # Class of committed instruction
system.cpu.op_class_0::IntDiv                       0      0.00%     54.68% # Class of committed instruction
system.cpu.op_class_0::FloatAdd                     0      0.00%     54.68% # Class of committed instruction
system.cpu.op_class_0::FloatCmp                     0      0.00%     54.68% # Class of committed instruction
system.cpu.op_class_0::FloatCvt                     0      0.00%     54.68% # Class of committed instruction
system.cpu.op_class_0::FloatMult                    0      0.00%     54.68% # Class of committed instruction
system.cpu.op_class_0::FloatMultAcc                 0      0.00%     54.68% # Class of committed instruction
system.cpu.op_class_0::FloatDiv                     0      0.00%     54.68% # Class of committed instruction
system.cpu.op_class_0::FloatMisc                    0      0.00%     54.68% # Class of committed instruction
system.cpu.op_class_0::FloatSqrt                    0      0.00%     54.68% # Class of committed instruction
system.cpu.op_class_0::SimdAdd                    380      0.00%     54.68% # Class of committed instruction
system.cpu.op_class_0::SimdAddAcc                   0      0.00%     54.68% # Class of committed instruction
system.cpu.op_class_0::SimdAlu                    470      0.00%     54.68% # Class of committed instruction
system.cpu.op_class_0::SimdCmp                    382      0.00%     54.68% # Class of committed instruction
system.cpu.op_class_0::SimdCvt                      0      0.00%     54.68% # Class of committed instruction
system.cpu.op_class_0::SimdMisc                    53      0.00%     54.68% # Class of committed instruction
system.cpu.op_class_0::SimdMult                     0      0.00%     54.68% # Class of committed instruction
system.cpu.op_class_0::SimdMultAcc                  0      0.00%     54.68% # Class of committed instruction
system.cpu.op_class_0::SimdShift                    0      0.00%     54.68% # Class of committed instruction
system.cpu.op_class_0::SimdShiftAcc                 0      0.00%     54.68% # Class of committed instruction
system.cpu.op_class_0::SimdDiv                      0      0.00%     54.68% # Class of committed instruction
system.cpu.op_class_0::SimdSqrt                     0      0.00%     54.68% # Class of committed instruction
system.cpu.op_class_0::SimdFloatAdd            267609      0.26%     54.95% # Class of committed instruction
system.cpu.op_class_0::SimdFloatAlu                 0      0.00%     54.95% # Class of committed instruction
system.cpu.op_class_0::SimdFloatCmp            259630      0.26%     55.20% # Class of committed instruction
system.cpu.op_class_0::SimdFloatCvt            161456      0.16%     55.36% # Class of committed instruction
system.cpu.op_class_0::SimdFloatDiv             54308      0.05%     55.42% # Class of committed instruction
system.cpu.op_class_0::SimdFloatMisc           483618      0.48%     55.90% # Class of committed instruction
system.cpu.op_class_0::SimdFloatMult            33524      0.03%     55.93% # Class of committed instruction
system.cpu.op_class_0::SimdFloatMultAcc         11115      0.01%     55.94% # Class of committed instruction
system.cpu.op_class_0::SimdFloatSqrt                0      0.00%     55.94% # Class of committed instruction
system.cpu.op_class_0::SimdReduceAdd                0      0.00%     55.94% # Class of committed instruction
system.cpu.op_class_0::SimdReduceAlu                0      0.00%     55.94% # Class of committed instruction
system.cpu.op_class_0::SimdReduceCmp                0      0.00%     55.94% # Class of committed instruction
system.cpu.op_class_0::SimdFloatReduceAdd            0      0.00%     55.94% # Class of committed instruction
system.cpu.op_class_0::SimdFloatReduceCmp            0      0.00%     55.94% # Class of committed instruction
system.cpu.op_class_0::SimdAes                      0      0.00%     55.94% # Class of committed instruction
system.cpu.op_class_0::SimdAesMix                   0      0.00%     55.94% # Class of committed instruction
system.cpu.op_class_0::SimdSha1Hash                 0      0.00%     55.94% # Class of committed instruction
system.cpu.op_class_0::SimdSha1Hash2                0      0.00%     55.94% # Class of committed instruction
system.cpu.op_class_0::SimdSha256Hash               0      0.00%     55.94% # Class of committed instruction
system.cpu.op_class_0::SimdSha256Hash2              0      0.00%     55.94% # Class of committed instruction
system.cpu.op_class_0::SimdShaSigma2                0      0.00%     55.94% # Class of committed instruction
system.cpu.op_class_0::SimdShaSigma3                0      0.00%     55.94% # Class of committed instruction
system.cpu.op_class_0::SimdPredAlu                  0      0.00%     55.94% # Class of committed instruction
system.cpu.op_class_0::MemRead               38167611     37.75%     93.69% # Class of committed instruction
system.cpu.op_class_0::MemWrite               6379105      6.31%    100.00% # Class of committed instruction
system.cpu.op_class_0::FloatMemRead                 0      0.00%    100.00% # Class of committed instruction
system.cpu.op_class_0::FloatMemWrite                0      0.00%    100.00% # Class of committed instruction
system.cpu.op_class_0::IprAccess                    0      0.00%    100.00% # Class of committed instruction
system.cpu.op_class_0::InstPrefetch                 0      0.00%    100.00% # Class of committed instruction
system.cpu.op_class_0::total                101102730                       # Class of committed instruction
system.cpu.tickCycles                       115622356                       # Number of cycles that the object actually ticked
system.cpu.workload.numSyscalls                    32                       # Number of system calls
system.membus.snoop_filter.hit_multi_requests            0                       # Number of requests hitting in the snoop filter with multiple (>1) holders of the requested data.
system.membus.snoop_filter.hit_multi_snoops            0                       # Number of snoops hitting in the snoop filter with multiple (>1) holders of the requested data.
system.membus.snoop_filter.hit_single_requests            0                       # Number of requests hitting in the snoop filter with a single holder of the requested data.
system.membus.snoop_filter.hit_single_snoops            0                       # Number of snoops hitting in the snoop filter with a single holder of the requested data.
system.membus.snoop_filter.tot_requests          2946                       # Total number of requests made to the snoop filter.
system.membus.snoop_filter.tot_snoops               0                       # Total number of snoops made to the snoop filter.
system.tol2bus.snoop_filter.hit_multi_requests          306                       # Number of requests hitting in the snoop filter with multiple (>1) holders of the requested data.
system.tol2bus.snoop_filter.hit_multi_snoops            0                       # Number of snoops hitting in the snoop filter with multiple (>1) holders of the requested data.
system.tol2bus.snoop_filter.hit_single_requests        13215                       # Number of requests hitting in the snoop filter with a single holder of the requested data.
system.tol2bus.snoop_filter.hit_single_snoops            0                       # Number of snoops hitting in the snoop filter with a single holder of the requested data.
system.tol2bus.snoop_filter.tot_requests        28191                       # Total number of requests made to the snoop filter.
system.tol2bus.snoop_filter.tot_snoops              0                       # Total number of snoops made to the snoop filter.
system.clk_domain.clock                          1000                       # Clock period in ticks
system.cpu.branchPred.lookups                 6507954                       # Number of BP lookups
system.cpu.branchPred.condPredicted           5099308                       # Number of conditional branches predicted
system.cpu.branchPred.condIncorrect            349152                       # Number of conditional branches incorrect
system.cpu.branchPred.BTBLookups              4085849                       # Number of BTB lookups
system.cpu.branchPred.BTBHits                 4078370                       # Number of BTB hits
system.cpu.branchPred.BTBHitPct             99.816954                       # BTB Hit Percentage
system.cpu.branchPred.RASUsed                  312747                       # Number of times the RAS was used to get a target.
system.cpu.branchPred.RASIncorrect                  4                       # Number of incorrect RAS predictions.
system.cpu.branchPred.indirectLookups          675702                       # Number of indirect predictor lookups.
system.cpu.branchPred.indirectHits             102896                       # Number of indirect target hits.
system.cpu.branchPred.indirectMisses           572806                       # Number of indirect misses.
system.cpu.branchPred.indirectMispredicted        37435                       # Number of mispredicted indirect branches.
system.cpu.dcache.demand_hits::.cpu.data     43882214                       # number of demand (read+write) hits
system.cpu.dcache.demand_hits::total         43882214                       # number of demand (read+write) hits
system.cpu.dcache.overall_hits::.cpu.data     43890857                       # number of overall hits
system.cpu.dcache.overall_hits::total        43890857                       # number of overall hits
system.cpu.dcache.demand_misses::.cpu.data        16261                       # number of demand (read+write) misses
system.cpu.dcache.demand_misses::total          16261                       # number of demand (read+write) misses
system.cpu.dcache.overall_misses::.cpu.data        16333                       # number of overall misses
system.cpu.dcache.overall_misses::total         16333                       # number of overall misses
system.cpu.dcache.demand_miss_latency::.cpu.data    691904000                       # number of demand (read+write) miss cycles
system.cpu.dcache.demand_miss_latency::total    691904000                       # number of demand (read+write) miss cycles
system.cpu.dcache.overall_miss_latency::.cpu.data    691904000                       # number of overall miss cycles
system.cpu.dcache.overall_miss_latency::total    691904000                       # number of overall miss cycles
system.cpu.dcache.demand_accesses::.cpu.data     43898475                       # number of demand (read+write) accesses
system.cpu.dcache.demand_accesses::total     43898475                       # number of demand (read+write) accesses
system.cpu.dcache.overall_accesses::.cpu.data     43907190                       # number of overall (read+write) accesses
system.cpu.dcache.overall_accesses::total     43907190                       # number of overall (read+write) accesses
system.cpu.dcache.demand_miss_rate::.cpu.data     0.000370                       # miss rate for demand accesses
system.cpu.dcache.demand_miss_rate::total     0.000370                       # miss rate for demand accesses
system.cpu.dcache.overall_miss_rate::.cpu.data     0.000372                       # miss rate for overall accesses
system.cpu.dcache.overall_miss_rate::total     0.000372                       # miss rate for overall accesses
system.cpu.dcache.demand_avg_miss_latency::.cpu.data 42549.904680                       # average overall miss latency
system.cpu.dcache.demand_avg_miss_latency::total 42549.904680                       # average overall miss latency
system.cpu.dcache.overall_avg_miss_latency::.cpu.data 42362.333925                       # average overall miss latency
system.cpu.dcache.overall_avg_miss_latency::total 42362.333925                       # average overall miss latency
system.cpu.dcache.blocked_cycles::no_mshrs            0                       # number of cycles access was blocked
system.cpu.dcache.blocked_cycles::no_targets            0                       # number of cycles access was blocked
system.cpu.dcache.blocked::no_mshrs                 0                       # number of cycles access was blocked
system.cpu.dcache.blocked::no_targets               0                       # number of cycles access was blocked
system.cpu.dcache.avg_blocked_cycles::no_mshrs          nan                       # average number of cycles each access was blocked
system.cpu.dcache.avg_blocked_cycles::no_targets          nan                       # average number of cycles each access was blocked
system.cpu.dcache.writebacks::.writebacks        12432                       # number of writebacks
system.cpu.dcache.writebacks::total             12432                       # number of writebacks
system.cpu.dcache.demand_mshr_hits::.cpu.data         2169                       # number of demand (read+write) MSHR hits
system.cpu.dcache.demand_mshr_hits::total         2169                       # number of demand (read+write) MSHR hits
system.cpu.dcache.overall_mshr_hits::.cpu.data         2169                       # number of overall MSHR hits
system.cpu.dcache.overall_mshr_hits::total         2169                       # number of overall MSHR hits
system.cpu.dcache.demand_mshr_misses::.cpu.data        14092                       # number of demand (read+write) MSHR misses
system.cpu.dcache.demand_mshr_misses::total        14092                       # number of demand (read+write) MSHR misses
system.cpu.dcache.overall_mshr_misses::.cpu.data        14138                       # number of overall MSHR misses
system.cpu.dcache.overall_mshr_misses::total        14138                       # number of overall MSHR misses
system.cpu.dcache.demand_mshr_miss_latency::.cpu.data    518672000                       # number of demand (read+write) MSHR miss cycles
system.cpu.dcache.demand_mshr_miss_latency::total    518672000                       # number of demand (read+write) MSHR miss cycles
system.cpu.dcache.overall_mshr_miss_latency::.cpu.data    523627000                       # number of overall MSHR miss cycles
system.cpu.dcache.overall_mshr_miss_latency::total    523627000                       # number of overall MSHR miss cycles
system.cpu.dcache.demand_mshr_miss_rate::.cpu.data     0.000321                       # mshr miss rate for demand accesses
system.cpu.dcache.demand_mshr_miss_rate::total     0.000321                       # mshr miss rate for demand accesses
system.cpu.dcache.overall_mshr_miss_rate::.cpu.data     0.000322                       # mshr miss rate for overall accesses
system.cpu.dcache.overall_mshr_miss_rate::total     0.000322                       # mshr miss rate for overall accesses
system.cpu.dcache.demand_avg_mshr_miss_latency::.cpu.data 36806.131138                       # average overall mshr miss latency
system.cpu.dcache.demand_avg_mshr_miss_latency::total 36806.131138                       # average overall mshr miss latency
system.cpu.dcache.overall_avg_mshr_miss_latency::.cpu.data 37036.851040                       # average overall mshr miss latency
system.cpu.dcache.overall_avg_mshr_miss_latency::total 37036.851040                       # average overall mshr miss latency
system.cpu.dcache.replacements                  13114                       # number of replacements
system.cpu.dcache.ReadReq_hits::.cpu.data     37574208                       # number of ReadReq hits
system.cpu.dcache.ReadReq_hits::total        37574208                       # number of ReadReq hits
system.cpu.dcache.ReadReq_misses::.cpu.data         3454                       # number of ReadReq misses
system.cpu.dcache.ReadReq_misses::total          3454                       # number of ReadReq misses
system.cpu.dcache.ReadReq_miss_latency::.cpu.data    115787000                       # number of ReadReq miss cycles
system.cpu.dcache.ReadReq_miss_latency::total    115787000                       # number of ReadReq miss cycles
system.cpu.dcache.ReadReq_accesses::.cpu.data     37577662                       # number of ReadReq accesses(hits+misses)
system.cpu.dcache.ReadReq_accesses::total     37577662                       # number of ReadReq accesses(hits+misses)
system.cpu.dcache.ReadReq_miss_rate::.cpu.data     0.000092                       # miss rate for ReadReq accesses
system.cpu.dcache.ReadReq_miss_rate::total     0.000092                       # miss rate for ReadReq accesses
system.cpu.dcache.ReadReq_avg_miss_latency::.cpu.data 33522.582513                       # average ReadReq miss latency
system.cpu.dcache.ReadReq_avg_miss_latency::total 33522.582513                       # average ReadReq miss latency
system.cpu.dcache.ReadReq_mshr_hits::.cpu.data           38                       # number of ReadReq MSHR hits
system.cpu.dcache.ReadReq_mshr_hits::total           38                       # number of ReadReq MSHR hits
system.cpu.dcache.ReadReq_mshr_misses::.cpu.data         3416                       # number of ReadReq MSHR misses
system.cpu.dcache.ReadReq_mshr_misses::total         3416                       # number of ReadReq MSHR misses
system.cpu.dcache.ReadReq_mshr_miss_latency::.cpu.data    106006000                       # number of ReadReq MSHR miss cycles
system.cpu.dcache.ReadReq_mshr_miss_latency::total    106006000                       # number of ReadReq MSHR miss cycles
system.cpu.dcache.ReadReq_mshr_miss_rate::.cpu.data     0.000091                       # mshr miss rate for ReadReq accesses
system.cpu.dcache.ReadReq_mshr_miss_rate::total     0.000091                       # mshr miss rate for ReadReq accesses
system.cpu.dcache.ReadReq_avg_mshr_miss_latency::.cpu.data 31032.201405                       # average ReadReq mshr miss latency
system.cpu.dcache.ReadReq_avg_mshr_miss_latency::total 31032.201405                       # average ReadReq mshr miss latency
system.cpu.dcache.WriteReq_hits::.cpu.data      6308006                       # number of WriteReq hits
system.cpu.dcache.WriteReq_hits::total        6308006                       # number of WriteReq hits
system.cpu.dcache.WriteReq_misses::.cpu.data        12807                       # number of WriteReq misses
system.cpu.dcache.WriteReq_misses::total        12807                       # number of WriteReq misses
system.cpu.dcache.WriteReq_miss_latency::.cpu.data    576117000                       # number of WriteReq miss cycles
system.cpu.dcache.WriteReq_miss_latency::total    576117000                       # number of WriteReq miss cycles
system.cpu.dcache.WriteReq_accesses::.cpu.data      6320813                       # number of WriteReq accesses(hits+misses)
system.cpu.dcache.WriteReq_accesses::total      6320813                       # number of WriteReq accesses(hits+misses)
system.cpu.dcache.WriteReq_miss_rate::.cpu.data     0.002026                       # miss rate for WriteReq accesses
system.cpu.dcache.WriteReq_miss_rate::total     0.002026                       # miss rate for WriteReq accesses
system.cpu.dcache.WriteReq_avg_miss_latency::.cpu.data 44984.539705                       # average WriteReq miss latency
system.cpu.dcache.WriteReq_avg_miss_latency::total 44984.539705                       # average WriteReq miss latency
system.cpu.dcache.WriteReq_mshr_hits::.cpu.data         2131                       # number of WriteReq MSHR hits
system.cpu.dcache.WriteReq_mshr_hits::total         2131                       # number of WriteReq MSHR hits
system.cpu.dcache.WriteReq_mshr_misses::.cpu.data        10676                       # number of WriteReq MSHR misses
system.cpu.dcache.WriteReq_mshr_misses::total        10676                       # number of WriteReq MSHR misses
system.cpu.dcache.WriteReq_mshr_miss_latency::.cpu.data    412666000                       # number of WriteReq MSHR miss cycles
system.cpu.dcache.WriteReq_mshr_miss_latency::total    412666000                       # number of WriteReq MSHR miss cycles
system.cpu.dcache.WriteReq_mshr_miss_rate::.cpu.data     0.001689                       # mshr miss rate for WriteReq accesses
system.cpu.dcache.WriteReq_mshr_miss_rate::total     0.001689                       # mshr miss rate for WriteReq accesses
system.cpu.dcache.WriteReq_avg_mshr_miss_latency::.cpu.data 38653.615586                       # average WriteReq mshr miss latency
system.cpu.dcache.WriteReq_avg_mshr_miss_latency::total 38653.615586                       # average WriteReq mshr miss latency
system.cpu.dcache.SoftPFReq_hits::.cpu.data         8643                       # number of SoftPFReq hits
system.cpu.dcache.SoftPFReq_hits::total          8643                       # number of SoftPFReq hits
system.cpu.dcache.SoftPFReq_misses::.cpu.data           72                       # number of SoftPFReq misses
system.cpu.dcache.SoftPFReq_misses::total           72                       # number of SoftPFReq misses
system.cpu.dcache.SoftPFReq_accesses::.cpu.data         8715                       # number of SoftPFReq accesses(hits+misses)
system.cpu.dcache.SoftPFReq_accesses::total         8715                       # number of SoftPFReq accesses(hits+misses)
system.cpu.dcache.SoftPFReq_miss_rate::.cpu.data     0.008262                       # miss rate for SoftPFReq accesses
system.cpu.dcache.SoftPFReq_miss_rate::total     0.008262                       # miss rate for SoftPFReq accesses
system.cpu.dcache.SoftPFReq_mshr_misses::.cpu.data           46                       # number of SoftPFReq MSHR misses
system.cpu.dcache.SoftPFReq_mshr_misses::total           46                       # number of SoftPFReq MSHR misses
system.cpu.dcache.SoftPFReq_mshr_miss_latency::.cpu.data      4955000                       # number of SoftPFReq MSHR miss cycles
system.cpu.dcache.SoftPFReq_mshr_miss_latency::total      4955000                       # number of SoftPFReq MSHR miss cycles
system.cpu.dcache.SoftPFReq_mshr_miss_rate::.cpu.data     0.005278                       # mshr miss rate for SoftPFReq accesses
system.cpu.dcache.SoftPFReq_mshr_miss_rate::total     0.005278                       # mshr miss rate for SoftPFReq accesses
system.cpu.dcache.SoftPFReq_avg_mshr_miss_latency::.cpu.data 107717.391304                       # average SoftPFReq mshr miss latency
system.cpu.dcache.SoftPFReq_avg_mshr_miss_latency::total 107717.391304                       # average SoftPFReq mshr miss latency
system.cpu.dcache.LoadLockedReq_hits::.cpu.data          166                       # number of LoadLockedReq hits
system.cpu.dcache.LoadLockedReq_hits::total          166                       # number of LoadLockedReq hits
system.cpu.dcache.LoadLockedReq_accesses::.cpu.data          166                       # number of LoadLockedReq accesses(hits+misses)
system.cpu.dcache.LoadLockedReq_accesses::total          166                       # number of LoadLockedReq accesses(hits+misses)
system.cpu.dcache.StoreCondReq_hits::.cpu.data          166                       # number of StoreCondReq hits
system.cpu.dcache.StoreCondReq_hits::total          166                       # number of StoreCondReq hits
system.cpu.dcache.StoreCondReq_accesses::.cpu.data          166                       # number of StoreCondReq accesses(hits+misses)
system.cpu.dcache.StoreCondReq_accesses::total          166                       # number of StoreCondReq accesses(hits+misses)
system.cpu.dcache.power_state.pwrStateResidencyTicks::UNDEFINED 117782884000                       # Cumulative time (in ticks) in various power states
system.cpu.dcache.tags.tagsinuse          1008.765462                       # Cycle average of tags in use
system.cpu.dcache.tags.total_refs            43905327                       # Total number of references to valid blocks.
system.cpu.dcache.tags.sampled_refs             14138                       # Sample count of references to valid blocks.
system.cpu.dcache.tags.avg_refs           3105.483590                       # Average number of references to valid blocks.
system.cpu.dcache.tags.warmup_cycle            233000                       # Cycle when the warmup percentage was hit.
system.cpu.dcache.tags.occ_blocks::.cpu.data  1008.765462                       # Average occupied blocks per requestor
system.cpu.dcache.tags.occ_percent::.cpu.data     0.985123                       # Average percentage of cache occupancy
system.cpu.dcache.tags.occ_percent::total     0.985123                       # Average percentage of cache occupancy
system.cpu.dcache.tags.occ_task_id_blocks::1024         1024                       # Occupied blocks per task id
system.cpu.dcache.tags.age_task_id_blocks_1024::0            1                       # Occupied blocks per task id
system.cpu.dcache.tags.age_task_id_blocks_1024::1            7                       # Occupied blocks per task id
system.cpu.dcache.tags.age_task_id_blocks_1024::2           69                       # Occupied blocks per task id
system.cpu.dcache.tags.age_task_id_blocks_1024::3          538                       # Occupied blocks per task id
system.cpu.dcache.tags.age_task_id_blocks_1024::4          409                       # Occupied blocks per task id
system.cpu.dcache.tags.occ_task_id_percent::1024            1                       # Percentage of cache occupancy per task id
system.cpu.dcache.tags.tag_accesses         175644226                       # Number of tag accesses
system.cpu.dcache.tags.data_accesses        175644226                       # Number of data accesses
system.cpu.dcache.tags.power_state.pwrStateResidencyTicks::UNDEFINED 117782884000                       # Cumulative time (in ticks) in various power states
system.cpu.dtb.instHits                             0                       # ITB inst hits
system.cpu.dtb.instMisses                           0                       # ITB inst misses
system.cpu.dtb.readHits                             0                       # DTB read hits
system.cpu.dtb.readMisses                           0                       # DTB read misses
system.cpu.dtb.writeHits                            0                       # DTB write hits
system.cpu.dtb.writeMisses                          0                       # DTB write misses
system.cpu.dtb.inserts                              0                       # Number of times an entry is inserted into the TLB
system.cpu.dtb.flushTlb                             0                       # Number of times complete TLB was flushed
system.cpu.dtb.flushTlbMva                          0                       # Number of times TLB was flushed by MVA
system.cpu.dtb.flushTlbMvaAsid                      0                       # Number of times TLB was flushed by MVA & ASID
system.cpu.dtb.flushTlbAsid                         0                       # Number of times TLB was flushed by ASID
system.cpu.dtb.flushedEntries                       0                       # Number of entries that have been flushed from TLB
system.cpu.dtb.alignFaults                          0                       # Number of TLB faults due to alignment restrictions
system.cpu.dtb.prefetchFaults                       0                       # Number of TLB faults due to prefetch
system.cpu.dtb.domainFaults                         0                       # Number of TLB faults due to domain restrictions
system.cpu.dtb.permsFaults                          0                       # Number of TLB faults due to permissions restrictions
system.cpu.dtb.readAccesses                         0                       # DTB read accesses
system.cpu.dtb.writeAccesses                        0                       # DTB write accesses
system.cpu.dtb.instAccesses                         0                       # ITB inst accesses
system.cpu.dtb.hits                                 0                       # Total TLB (inst and data) hits
system.cpu.dtb.misses                               0                       # Total TLB (inst and data) misses
system.cpu.dtb.accesses                             0                       # Total TLB (inst and data) accesses
system.cpu.dtb.stage2_mmu.stage2_tlb.instHits            0                       # ITB inst hits
system.cpu.dtb.stage2_mmu.stage2_tlb.instMisses            0                       # ITB inst misses
system.cpu.dtb.stage2_mmu.stage2_tlb.readHits            0                       # DTB read hits
system.cpu.dtb.stage2_mmu.stage2_tlb.readMisses            0                       # DTB read misses
system.cpu.dtb.stage2_mmu.stage2_tlb.writeHits            0                       # DTB write hits
system.cpu.dtb.stage2_mmu.stage2_tlb.writeMisses            0                       # DTB write misses
system.cpu.dtb.stage2_mmu.stage2_tlb.inserts            0                       # Number of times an entry is inserted into the TLB
system.cpu.dtb.stage2_mmu.stage2_tlb.flushTlb            0                       # Number of times complete TLB was flushed
system.cpu.dtb.stage2_mmu.stage2_tlb.flushTlbMva            0                       # Number of times TLB was flushed by MVA
system.cpu.dtb.stage2_mmu.stage2_tlb.flushTlbMvaAsid            0                       # Number of times TLB was flushed by MVA & ASID
system.cpu.dtb.stage2_mmu.stage2_tlb.flushTlbAsid            0                       # Number of times TLB was flushed by ASID
system.cpu.dtb.stage2_mmu.stage2_tlb.flushedEntries            0                       # Number of entries that have been flushed from TLB
system.cpu.dtb.stage2_mmu.stage2_tlb.alignFaults            0                       # Number of TLB faults due to alignment restrictions
system.cpu.dtb.stage2_mmu.stage2_tlb.prefetchFaults            0                       # Number of TLB faults due to prefetch
system.cpu.dtb.stage2_mmu.stage2_tlb.domainFaults            0                       # Number of TLB faults due to domain restrictions
system.cpu.dtb.stage2_mmu.stage2_tlb.permsFaults            0                       # Number of TLB faults due to permissions restrictions
system.cpu.dtb.stage2_mmu.stage2_tlb.readAccesses            0                       # DTB read accesses
system.cpu.dtb.stage2_mmu.stage2_tlb.writeAccesses            0                       # DTB write accesses
system.cpu.dtb.stage2_mmu.stage2_tlb.instAccesses            0                       # ITB inst accesses
system.cpu.dtb.stage2_mmu.stage2_tlb.hits            0                       # Total TLB (inst and data) hits
system.cpu.dtb.stage2_mmu.stage2_tlb.misses            0                       # Total TLB (inst and data) misses
system.cpu.dtb.stage2_mmu.stage2_tlb.accesses            0                       # Total TLB (inst and data) accesses
system.cpu.dtb.stage2_mmu.stage2_tlb.walker.walks            0                       # Table walker walks requested
system.cpu.dtb.stage2_mmu.stage2_tlb.walker.requestOrigin_Requested::Data            0                       # Table walker requests started/completed, data/inst
system.cpu.dtb.stage2_mmu.stage2_tlb.walker.requestOrigin_Requested::Inst            0                       # Table walker requests started/completed, data/inst
system.cpu.dtb.stage2_mmu.stage2_tlb.walker.requestOrigin_Requested::total            0                       # Table walker requests started/completed, data/inst
system.cpu.dtb.stage2_mmu.stage2_tlb.walker.requestOrigin_Completed::Data            0                       # Table walker requests started/completed, data/inst
system.cpu.dtb.stage2_mmu.stage2_tlb.walker.requestOrigin_Completed::Inst            0                       # Table walker requests started/completed, data/inst
system.cpu.dtb.stage2_mmu.stage2_tlb.walker.requestOrigin_Completed::total            0                       # Table walker requests started/completed, data/inst
system.cpu.dtb.stage2_mmu.stage2_tlb.walker.requestOrigin::total            0                       # Table walker requests started/completed, data/inst
system.cpu.dtb.stage2_mmu.stage2_tlb.walker.power_state.pwrStateResidencyTicks::UNDEFINED 117782884000                       # Cumulative time (in ticks) in various power states
system.cpu.dtb.walker.walks                         0                       # Table walker walks requested
system.cpu.dtb.walker.requestOrigin_Requested::Data            0                       # Table walker requests started/completed, data/inst
system.cpu.dtb.walker.requestOrigin_Requested::Inst            0                       # Table walker requests started/completed, data/inst
system.cpu.dtb.walker.requestOrigin_Requested::total            0                       # Table walker requests started/completed, data/inst
system.cpu.dtb.walker.requestOrigin_Completed::Data            0                       # Table walker requests started/completed, data/inst
system.cpu.dtb.walker.requestOrigin_Completed::Inst            0                       # Table walker requests started/completed, data/inst
system.cpu.dtb.walker.requestOrigin_Completed::total            0                       # Table walker requests started/completed, data/inst
system.cpu.dtb.walker.requestOrigin::total            0                       # Table walker requests started/completed, data/inst
system.cpu.dtb.walker.power_state.pwrStateResidencyTicks::UNDEFINED 117782884000                       # Cumulative time (in ticks) in various power states
system.cpu.fetch2.intInstructions            48942802                       # Number of integer instructions successfully decoded
system.cpu.fetch2.fpInstructions                    0                       # Number of floating point instructions successfully decoded
system.cpu.fetch2.vecInstructions                   0                       # Number of SIMD instructions successfully decoded
system.cpu.fetch2.loadInstructions           40584423                       # Number of memory load instructions successfully decoded
system.cpu.fetch2.storeInstructions           6267176                       # Number of memory store instructions successfully decoded
system.cpu.fetch2.amoInstructions                   0                       # Number of memory atomic instructions successfully decoded
system.cpu.icache.demand_hits::.cpu.inst     15191998                       # number of demand (read+write) hits
system.cpu.icache.demand_hits::total         15191998                       # number of demand (read+write) hits
system.cpu.icache.overall_hits::.cpu.inst     15191998                       # number of overall hits
system.cpu.icache.overall_hits::total        15191998                       # number of overall hits
system.cpu.icache.demand_misses::.cpu.inst          853                       # number of demand (read+write) misses
system.cpu.icache.demand_misses::total            853                       # number of demand (read+write) misses
system.cpu.icache.overall_misses::.cpu.inst          853                       # number of overall misses
system.cpu.icache.overall_misses::total           853                       # number of overall misses
system.cpu.icache.demand_miss_latency::.cpu.inst     88592000                       # number of demand (read+write) miss cycles
system.cpu.icache.demand_miss_latency::total     88592000                       # number of demand (read+write) miss cycles
system.cpu.icache.overall_miss_latency::.cpu.inst     88592000                       # number of overall miss cycles
system.cpu.icache.overall_miss_latency::total     88592000                       # number of overall miss cycles
system.cpu.icache.demand_accesses::.cpu.inst     15192851                       # number of demand (read+write) accesses
system.cpu.icache.demand_accesses::total     15192851                       # number of demand (read+write) accesses
system.cpu.icache.overall_accesses::.cpu.inst     15192851                       # number of overall (read+write) accesses
system.cpu.icache.overall_accesses::total     15192851                       # number of overall (read+write) accesses
system.cpu.icache.demand_miss_rate::.cpu.inst     0.000056                       # miss rate for demand accesses
system.cpu.icache.demand_miss_rate::total     0.000056                       # miss rate for demand accesses
system.cpu.icache.overall_miss_rate::.cpu.inst     0.000056                       # miss rate for overall accesses
system.cpu.icache.overall_miss_rate::total     0.000056                       # miss rate for overall accesses
system.cpu.icache.demand_avg_miss_latency::.cpu.inst 103859.320047                       # average overall miss latency
system.cpu.icache.demand_avg_miss_latency::total 103859.320047                       # average overall miss latency
system.cpu.icache.overall_avg_miss_latency::.cpu.inst 103859.320047                       # average overall miss latency
system.cpu.icache.overall_avg_miss_latency::total 103859.320047                       # average overall miss latency
system.cpu.icache.blocked_cycles::no_mshrs            0                       # number of cycles access was blocked
system.cpu.icache.blocked_cycles::no_targets            0                       # number of cycles access was blocked
system.cpu.icache.blocked::no_mshrs                 0                       # number of cycles access was blocked
system.cpu.icache.blocked::no_targets               0                       # number of cycles access was blocked
system.cpu.icache.avg_blocked_cycles::no_mshrs          nan                       # average number of cycles each access was blocked
system.cpu.icache.avg_blocked_cycles::no_targets          nan                       # average number of cycles each access was blocked
system.cpu.icache.writebacks::.writebacks           86                       # number of writebacks
system.cpu.icache.writebacks::total                86                       # number of writebacks
system.cpu.icache.demand_mshr_misses::.cpu.inst          853                       # number of demand (read+write) MSHR misses
system.cpu.icache.demand_mshr_misses::total          853                       # number of demand (read+write) MSHR misses
system.cpu.icache.overall_mshr_misses::.cpu.inst          853                       # number of overall MSHR misses
system.cpu.icache.overall_mshr_misses::total          853                       # number of overall MSHR misses
system.cpu.icache.demand_mshr_miss_latency::.cpu.inst     86886000                       # number of demand (read+write) MSHR miss cycles
system.cpu.icache.demand_mshr_miss_latency::total     86886000                       # number of demand (read+write) MSHR miss cycles
system.cpu.icache.overall_mshr_miss_latency::.cpu.inst     86886000                       # number of overall MSHR miss cycles
system.cpu.icache.overall_mshr_miss_latency::total     86886000                       # number of overall MSHR miss cycles
system.cpu.icache.demand_mshr_miss_rate::.cpu.inst     0.000056                       # mshr miss rate for demand accesses
system.cpu.icache.demand_mshr_miss_rate::total     0.000056                       # mshr miss rate for demand accesses
system.cpu.icache.overall_mshr_miss_rate::.cpu.inst     0.000056                       # mshr miss rate for overall accesses
system.cpu.icache.overall_mshr_miss_rate::total     0.000056                       # mshr miss rate for overall accesses
system.cpu.icache.demand_avg_mshr_miss_latency::.cpu.inst 101859.320047                       # average overall mshr miss latency
system.cpu.icache.demand_avg_mshr_miss_latency::total 101859.320047                       # average overall mshr miss latency
system.cpu.icache.overall_avg_mshr_miss_latency::.cpu.inst 101859.320047                       # average overall mshr miss latency
system.cpu.icache.overall_avg_mshr_miss_latency::total 101859.320047                       # average overall mshr miss latency
system.cpu.icache.replacements                     86                       # number of replacements
system.cpu.icache.ReadReq_hits::.cpu.inst     15191998                       # number of ReadReq hits
system.cpu.icache.ReadReq_hits::total        15191998                       # number of ReadReq hits
system.cpu.icache.ReadReq_misses::.cpu.inst          853                       # number of ReadReq misses
system.cpu.icache.ReadReq_misses::total           853                       # number of ReadReq misses
system.cpu.icache.ReadReq_miss_latency::.cpu.inst     88592000                       # number of ReadReq miss cycles
system.cpu.icache.ReadReq_miss_latency::total     88592000                       # number of ReadReq miss cycles
system.cpu.icache.ReadReq_accesses::.cpu.inst     15192851                       # number of ReadReq accesses(hits+misses)
system.cpu.icache.ReadReq_accesses::total     15192851                       # number of ReadReq accesses(hits+misses)
system.cpu.icache.ReadReq_miss_rate::.cpu.inst     0.000056                       # miss rate for ReadReq accesses
system.cpu.icache.ReadReq_miss_rate::total     0.000056                       # miss rate for ReadReq accesses
system.cpu.icache.ReadReq_avg_miss_latency::.cpu.inst 103859.320047                       # average ReadReq miss latency
system.cpu.icache.ReadReq_avg_miss_latency::total 103859.320047                       # average ReadReq miss latency
system.cpu.icache.ReadReq_mshr_misses::.cpu.inst          853                       # number of ReadReq MSHR misses
system.cpu.icache.ReadReq_mshr_misses::total          853                       # number of ReadReq MSHR misses
system.cpu.icache.ReadReq_mshr_miss_latency::.cpu.inst     86886000                       # number of ReadReq MSHR miss cycles
system.cpu.icache.ReadReq_mshr_miss_latency::total     86886000                       # number of ReadReq MSHR miss cycles
system.cpu.icache.ReadReq_mshr_miss_rate::.cpu.inst     0.000056                       # mshr miss rate for ReadReq accesses
system.cpu.icache.ReadReq_mshr_miss_rate::total     0.000056                       # mshr miss rate for ReadReq accesses
system.cpu.icache.ReadReq_avg_mshr_miss_latency::.cpu.inst 101859.320047                       # average ReadReq mshr miss latency
system.cpu.icache.ReadReq_avg_mshr_miss_latency::total 101859.320047                       # average ReadReq mshr miss latency
system.cpu.icache.power_state.pwrStateResidencyTicks::UNDEFINED 117782884000                       # Cumulative time (in ticks) in various power states
system.cpu.icache.tags.tagsinuse           764.099497                       # Cycle average of tags in use
system.cpu.icache.tags.total_refs            15192851                       # Total number of references to valid blocks.
system.cpu.icache.tags.sampled_refs               853                       # Sample count of references to valid blocks.
system.cpu.icache.tags.avg_refs          17811.079719                       # Average number of references to valid blocks.
system.cpu.icache.tags.warmup_cycle            113000                       # Cycle when the warmup percentage was hit.
system.cpu.icache.tags.occ_blocks::.cpu.inst   764.099497                       # Average occupied blocks per requestor
system.cpu.icache.tags.occ_percent::.cpu.inst     0.746191                       # Average percentage of cache occupancy
system.cpu.icache.tags.occ_percent::total     0.746191                       # Average percentage of cache occupancy
system.cpu.icache.tags.occ_task_id_blocks::1024          767                       # Occupied blocks per task id
system.cpu.icache.tags.age_task_id_blocks_1024::3            1                       # Occupied blocks per task id
system.cpu.icache.tags.age_task_id_blocks_1024::4          766                       # Occupied blocks per task id
system.cpu.icache.tags.occ_task_id_percent::1024     0.749023                       # Percentage of cache occupancy per task id
system.cpu.icache.tags.tag_accesses          60772257                       # Number of tag accesses
system.cpu.icache.tags.data_accesses         60772257                       # Number of data accesses
system.cpu.icache.tags.power_state.pwrStateResidencyTicks::UNDEFINED 117782884000                       # Cumulative time (in ticks) in various power states
system.cpu.itb.instHits                             0                       # ITB inst hits
system.cpu.itb.instMisses                           0                       # ITB inst misses
system.cpu.itb.readHits                             0                       # DTB read hits
system.cpu.itb.readMisses                           0                       # DTB read misses
system.cpu.itb.writeHits                            0                       # DTB write hits
system.cpu.itb.writeMisses                          0                       # DTB write misses
system.cpu.itb.inserts                              0                       # Number of times an entry is inserted into the TLB
system.cpu.itb.flushTlb                             0                       # Number of times complete TLB was flushed
system.cpu.itb.flushTlbMva                          0                       # Number of times TLB was flushed by MVA
system.cpu.itb.flushTlbMvaAsid                      0                       # Number of times TLB was flushed by MVA & ASID
system.cpu.itb.flushTlbAsid                         0                       # Number of times TLB was flushed by ASID
system.cpu.itb.flushedEntries                       0                       # Number of entries that have been flushed from TLB
system.cpu.itb.alignFaults                          0                       # Number of TLB faults due to alignment restrictions
system.cpu.itb.prefetchFaults                       0                       # Number of TLB faults due to prefetch
system.cpu.itb.domainFaults                         0                       # Number of TLB faults due to domain restrictions
system.cpu.itb.permsFaults                          0                       # Number of TLB faults due to permissions restrictions
system.cpu.itb.readAccesses                         0                       # DTB read accesses
system.cpu.itb.writeAccesses                        0                       # DTB write accesses
system.cpu.itb.instAccesses                         0                       # ITB inst accesses
system.cpu.itb.hits                                 0                       # Total TLB (inst and data) hits
system.cpu.itb.misses                               0                       # Total TLB (inst and data) misses
system.cpu.itb.accesses                             0                       # Total TLB (inst and data) accesses
system.cpu.itb.stage2_mmu.stage2_tlb.instHits            0                       # ITB inst hits
system.cpu.itb.stage2_mmu.stage2_tlb.instMisses            0                       # ITB inst misses
system.cpu.itb.stage2_mmu.stage2_tlb.readHits            0                       # DTB read hits
system.cpu.itb.stage2_mmu.stage2_tlb.readMisses            0                       # DTB read misses
system.cpu.itb.stage2_mmu.stage2_tlb.writeHits            0                       # DTB write hits
system.cpu.itb.stage2_mmu.stage2_tlb.writeMisses            0                       # DTB write misses
system.cpu.itb.stage2_mmu.stage2_tlb.inserts            0                       # Number of times an entry is inserted into the TLB
system.cpu.itb.stage2_mmu.stage2_tlb.flushTlb            0                       # Number of times complete TLB was flushed
system.cpu.itb.stage2_mmu.stage2_tlb.flushTlbMva            0                       # Number of times TLB was flushed by MVA
system.cpu.itb.stage2_mmu.stage2_tlb.flushTlbMvaAsid            0                       # Number of times TLB was flushed by MVA & ASID
system.cpu.itb.stage2_mmu.stage2_tlb.flushTlbAsid            0                       # Number of times TLB was flushed by ASID
system.cpu.itb.stage2_mmu.stage2_tlb.flushedEntries            0                       # Number of entries that have been flushed from TLB
system.cpu.itb.stage2_mmu.stage2_tlb.alignFaults            0                       # Number of TLB faults due to alignment restrictions
system.cpu.itb.stage2_mmu.stage2_tlb.prefetchFaults            0                       # Number of TLB faults due to prefetch
system.cpu.itb.stage2_mmu.stage2_tlb.domainFaults            0                       # Number of TLB faults due to domain restrictions
system.cpu.itb.stage2_mmu.stage2_tlb.permsFaults            0                       # Number of TLB faults due to permissions restrictions
system.cpu.itb.stage2_mmu.stage2_tlb.readAccesses            0                       # DTB read accesses
system.cpu.itb.stage2_mmu.stage2_tlb.writeAccesses            0                       # DTB write accesses
system.cpu.itb.stage2_mmu.stage2_tlb.instAccesses            0                       # ITB inst accesses
system.cpu.itb.stage2_mmu.stage2_tlb.hits            0                       # Total TLB (inst and data) hits
system.cpu.itb.stage2_mmu.stage2_tlb.misses            0                       # Total TLB (inst and data) misses
system.cpu.itb.stage2_mmu.stage2_tlb.accesses            0                       # Total TLB (inst and data) accesses
system.cpu.itb.stage2_mmu.stage2_tlb.walker.walks            0                       # Table walker walks requested
system.cpu.itb.stage2_mmu.stage2_tlb.walker.requestOrigin_Requested::Data            0                       # Table walker requests started/completed, data/inst
system.cpu.itb.stage2_mmu.stage2_tlb.walker.requestOrigin_Requested::Inst            0                       # Table walker requests started/completed, data/inst
system.cpu.itb.stage2_mmu.stage2_tlb.walker.requestOrigin_Requested::total            0                       # Table walker requests started/completed, data/inst
system.cpu.itb.stage2_mmu.stage2_tlb.walker.requestOrigin_Completed::Data            0                       # Table walker requests started/completed, data/inst
system.cpu.itb.stage2_mmu.stage2_tlb.walker.requestOrigin_Completed::Inst            0                       # Table walker requests started/completed, data/inst
system.cpu.itb.stage2_mmu.stage2_tlb.walker.requestOrigin_Completed::total            0                       # Table walker requests started/completed, data/inst
system.cpu.itb.stage2_mmu.stage2_tlb.walker.requestOrigin::total            0                       # Table walker requests started/completed, data/inst
system.cpu.itb.stage2_mmu.stage2_tlb.walker.power_state.pwrStateResidencyTicks::UNDEFINED 117782884000                       # Cumulative time (in ticks) in various power states
system.cpu.itb.walker.walks                         0                       # Table walker walks requested
system.cpu.itb.walker.requestOrigin_Requested::Data            0                       # Table walker requests started/completed, data/inst
system.cpu.itb.walker.requestOrigin_Requested::Inst            0                       # Table walker requests started/completed, data/inst
system.cpu.itb.walker.requestOrigin_Requested::total            0                       # Table walker requests started/completed, data/inst
system.cpu.itb.walker.requestOrigin_Completed::Data            0                       # Table walker requests started/completed, data/inst
system.cpu.itb.walker.requestOrigin_Completed::Inst            0                       # Table walker requests started/completed, data/inst
system.cpu.itb.walker.requestOrigin_Completed::total            0                       # Table walker requests started/completed, data/inst
system.cpu.itb.walker.requestOrigin::total            0                       # Table walker requests started/completed, data/inst
system.cpu.itb.walker.power_state.pwrStateResidencyTicks::UNDEFINED 117782884000                       # Cumulative time (in ticks) in various power states
system.cpu.power_state.pwrStateResidencyTicks::ON 117782884000                       # Cumulative time (in ticks) in various power states
system.cpu.thread17522.numInsts             100000000                       # Number of Instructions committed
system.cpu.thread17522.numOps               101102730                       # Number of Ops committed
system.cpu.thread17522.numMemRefs                   0                       # Number of Memory References
system.cpu_clk_domain.clock                      1000                       # Clock period in ticks
system.cpu_voltage_domain.voltage                   1                       # Voltage in Volts
system.l2.demand_hits::.cpu.inst                   55                       # number of demand (read+write) hits
system.l2.demand_hits::.cpu.data                11982                       # number of demand (read+write) hits
system.l2.demand_hits::total                    12037                       # number of demand (read+write) hits
system.l2.overall_hits::.cpu.inst                  55                       # number of overall hits
system.l2.overall_hits::.cpu.data               11982                       # number of overall hits
system.l2.overall_hits::total                   12037                       # number of overall hits
system.l2.demand_misses::.cpu.inst                798                       # number of demand (read+write) misses
system.l2.demand_misses::.cpu.data               2156                       # number of demand (read+write) misses
system.l2.demand_misses::total                   2954                       # number of demand (read+write) misses
system.l2.overall_misses::.cpu.inst               798                       # number of overall misses
system.l2.overall_misses::.cpu.data              2156                       # number of overall misses
system.l2.overall_misses::total                  2954                       # number of overall misses
system.l2.demand_miss_latency::.cpu.inst     83042000                       # number of demand (read+write) miss cycles
system.l2.demand_miss_latency::.cpu.data    228834000                       # number of demand (read+write) miss cycles
system.l2.demand_miss_latency::total        311876000                       # number of demand (read+write) miss cycles
system.l2.overall_miss_latency::.cpu.inst     83042000                       # number of overall miss cycles
system.l2.overall_miss_latency::.cpu.data    228834000                       # number of overall miss cycles
system.l2.overall_miss_latency::total       311876000                       # number of overall miss cycles
system.l2.demand_accesses::.cpu.inst              853                       # number of demand (read+write) accesses
system.l2.demand_accesses::.cpu.data            14138                       # number of demand (read+write) accesses
system.l2.demand_accesses::total                14991                       # number of demand (read+write) accesses
system.l2.overall_accesses::.cpu.inst             853                       # number of overall (read+write) accesses
system.l2.overall_accesses::.cpu.data           14138                       # number of overall (read+write) accesses
system.l2.overall_accesses::total               14991                       # number of overall (read+write) accesses
system.l2.demand_miss_rate::.cpu.inst        0.935522                       # miss rate for demand accesses
system.l2.demand_miss_rate::.cpu.data        0.152497                       # miss rate for demand accesses
system.l2.demand_miss_rate::total            0.197052                       # miss rate for demand accesses
system.l2.overall_miss_rate::.cpu.inst       0.935522                       # miss rate for overall accesses
system.l2.overall_miss_rate::.cpu.data       0.152497                       # miss rate for overall accesses
system.l2.overall_miss_rate::total           0.197052                       # miss rate for overall accesses
system.l2.demand_avg_miss_latency::.cpu.inst 104062.656642                       # average overall miss latency
system.l2.demand_avg_miss_latency::.cpu.data 106138.218924                       # average overall miss latency
system.l2.demand_avg_miss_latency::total 105577.522004                       # average overall miss latency
system.l2.overall_avg_miss_latency::.cpu.inst 104062.656642                       # average overall miss latency
system.l2.overall_avg_miss_latency::.cpu.data 106138.218924                       # average overall miss latency
system.l2.overall_avg_miss_latency::total 105577.522004                       # average overall miss latency
system.l2.blocked_cycles::no_mshrs                  0                       # number of cycles access was blocked
system.l2.blocked_cycles::no_targets                0                       # number of cycles access was blocked
system.l2.blocked::no_mshrs                         0                       # number of cycles access was blocked
system.l2.blocked::no_targets                       0                       # number of cycles access was blocked
system.l2.avg_blocked_cycles::no_mshrs            nan                       # average number of cycles each access was blocked
system.l2.avg_blocked_cycles::no_targets          nan                       # average number of cycles each access was blocked
system.l2.demand_mshr_hits::.cpu.inst               1                       # number of demand (read+write) MSHR hits
system.l2.demand_mshr_hits::.cpu.data               7                       # number of demand (read+write) MSHR hits
system.l2.demand_mshr_hits::total                   8                       # number of demand (read+write) MSHR hits
system.l2.overall_mshr_hits::.cpu.inst              1                       # number of overall MSHR hits
system.l2.overall_mshr_hits::.cpu.data              7                       # number of overall MSHR hits
system.l2.overall_mshr_hits::total                  8                       # number of overall MSHR hits
system.l2.demand_mshr_misses::.cpu.inst           797                       # number of demand (read+write) MSHR misses
system.l2.demand_mshr_misses::.cpu.data          2149                       # number of demand (read+write) MSHR misses
system.l2.demand_mshr_misses::total              2946                       # number of demand (read+write) MSHR misses
system.l2.overall_mshr_misses::.cpu.inst          797                       # number of overall MSHR misses
system.l2.overall_mshr_misses::.cpu.data         2149                       # number of overall MSHR misses
system.l2.overall_mshr_misses::total             2946                       # number of overall MSHR misses
system.l2.demand_mshr_miss_latency::.cpu.inst     67008000                       # number of demand (read+write) MSHR miss cycles
system.l2.demand_mshr_miss_latency::.cpu.data    185264000                       # number of demand (read+write) MSHR miss cycles
system.l2.demand_mshr_miss_latency::total    252272000                       # number of demand (read+write) MSHR miss cycles
system.l2.overall_mshr_miss_latency::.cpu.inst     67008000                       # number of overall MSHR miss cycles
system.l2.overall_mshr_miss_latency::.cpu.data    185264000                       # number of overall MSHR miss cycles
system.l2.overall_mshr_miss_latency::total    252272000                       # number of overall MSHR miss cycles
system.l2.demand_mshr_miss_rate::.cpu.inst     0.934349                       # mshr miss rate for demand accesses
system.l2.demand_mshr_miss_rate::.cpu.data     0.152002                       # mshr miss rate for demand accesses
system.l2.demand_mshr_miss_rate::total       0.196518                       # mshr miss rate for demand accesses
system.l2.overall_mshr_miss_rate::.cpu.inst     0.934349                       # mshr miss rate for overall accesses
system.l2.overall_mshr_miss_rate::.cpu.data     0.152002                       # mshr miss rate for overall accesses
system.l2.overall_mshr_miss_rate::total      0.196518                       # mshr miss rate for overall accesses
system.l2.demand_avg_mshr_miss_latency::.cpu.inst 84075.282309                       # average overall mshr miss latency
system.l2.demand_avg_mshr_miss_latency::.cpu.data 86209.399721                       # average overall mshr miss latency
system.l2.demand_avg_mshr_miss_latency::total 85632.043449                       # average overall mshr miss latency
system.l2.overall_avg_mshr_miss_latency::.cpu.inst 84075.282309                       # average overall mshr miss latency
system.l2.overall_avg_mshr_miss_latency::.cpu.data 86209.399721                       # average overall mshr miss latency
system.l2.overall_avg_mshr_miss_latency::total 85632.043449                       # average overall mshr miss latency
system.l2.replacements                              0                       # number of replacements
system.l2.WritebackDirty_hits::.writebacks        12432                       # number of WritebackDirty hits
system.l2.WritebackDirty_hits::total            12432                       # number of WritebackDirty hits
system.l2.WritebackDirty_accesses::.writebacks        12432                       # number of WritebackDirty accesses(hits+misses)
system.l2.WritebackDirty_accesses::total        12432                       # number of WritebackDirty accesses(hits+misses)
system.l2.WritebackClean_hits::.writebacks           80                       # number of WritebackClean hits
system.l2.WritebackClean_hits::total               80                       # number of WritebackClean hits
system.l2.WritebackClean_accesses::.writebacks           80                       # number of WritebackClean accesses(hits+misses)
system.l2.WritebackClean_accesses::total           80                       # number of WritebackClean accesses(hits+misses)
system.l2.ReadExReq_hits::.cpu.data              8831                       # number of ReadExReq hits
system.l2.ReadExReq_hits::total                  8831                       # number of ReadExReq hits
system.l2.ReadExReq_misses::.cpu.data            1845                       # number of ReadExReq misses
system.l2.ReadExReq_misses::total                1845                       # number of ReadExReq misses
system.l2.ReadExReq_miss_latency::.cpu.data    195181000                       # number of ReadExReq miss cycles
system.l2.ReadExReq_miss_latency::total     195181000                       # number of ReadExReq miss cycles
system.l2.ReadExReq_accesses::.cpu.data         10676                       # number of ReadExReq accesses(hits+misses)
system.l2.ReadExReq_accesses::total             10676                       # number of ReadExReq accesses(hits+misses)
system.l2.ReadExReq_miss_rate::.cpu.data     0.172818                       # miss rate for ReadExReq accesses
system.l2.ReadExReq_miss_rate::total         0.172818                       # miss rate for ReadExReq accesses
system.l2.ReadExReq_avg_miss_latency::.cpu.data 105789.159892                       # average ReadExReq miss latency
system.l2.ReadExReq_avg_miss_latency::total 105789.159892                       # average ReadExReq miss latency
system.l2.ReadExReq_mshr_misses::.cpu.data         1845                       # number of ReadExReq MSHR misses
system.l2.ReadExReq_mshr_misses::total           1845                       # number of ReadExReq MSHR misses
system.l2.ReadExReq_mshr_miss_latency::.cpu.data    158281000                       # number of ReadExReq MSHR miss cycles
system.l2.ReadExReq_mshr_miss_latency::total    158281000                       # number of ReadExReq MSHR miss cycles
system.l2.ReadExReq_mshr_miss_rate::.cpu.data     0.172818                       # mshr miss rate for ReadExReq accesses
system.l2.ReadExReq_mshr_miss_rate::total     0.172818                       # mshr miss rate for ReadExReq accesses
system.l2.ReadExReq_avg_mshr_miss_latency::.cpu.data 85789.159892                       # average ReadExReq mshr miss latency
system.l2.ReadExReq_avg_mshr_miss_latency::total 85789.159892                       # average ReadExReq mshr miss latency
system.l2.ReadCleanReq_hits::.cpu.inst             55                       # number of ReadCleanReq hits
system.l2.ReadCleanReq_hits::total                 55                       # number of ReadCleanReq hits
system.l2.ReadCleanReq_misses::.cpu.inst          798                       # number of ReadCleanReq misses
system.l2.ReadCleanReq_misses::total              798                       # number of ReadCleanReq misses
system.l2.ReadCleanReq_miss_latency::.cpu.inst     83042000                       # number of ReadCleanReq miss cycles
system.l2.ReadCleanReq_miss_latency::total     83042000                       # number of ReadCleanReq miss cycles
system.l2.ReadCleanReq_accesses::.cpu.inst          853                       # number of ReadCleanReq accesses(hits+misses)
system.l2.ReadCleanReq_accesses::total            853                       # number of ReadCleanReq accesses(hits+misses)
system.l2.ReadCleanReq_miss_rate::.cpu.inst     0.935522                       # miss rate for ReadCleanReq accesses
system.l2.ReadCleanReq_miss_rate::total      0.935522                       # miss rate for ReadCleanReq accesses
system.l2.ReadCleanReq_avg_miss_latency::.cpu.inst 104062.656642                       # average ReadCleanReq miss latency
system.l2.ReadCleanReq_avg_miss_latency::total 104062.656642                       # average ReadCleanReq miss latency
system.l2.ReadCleanReq_mshr_hits::.cpu.inst            1                       # number of ReadCleanReq MSHR hits
system.l2.ReadCleanReq_mshr_hits::total             1                       # number of ReadCleanReq MSHR hits
system.l2.ReadCleanReq_mshr_misses::.cpu.inst          797                       # number of ReadCleanReq MSHR misses
system.l2.ReadCleanReq_mshr_misses::total          797                       # number of ReadCleanReq MSHR misses
system.l2.ReadCleanReq_mshr_miss_latency::.cpu.inst     67008000                       # number of ReadCleanReq MSHR miss cycles
system.l2.ReadCleanReq_mshr_miss_latency::total     67008000                       # number of ReadCleanReq MSHR miss cycles
system.l2.ReadCleanReq_mshr_miss_rate::.cpu.inst     0.934349                       # mshr miss rate for ReadCleanReq accesses
system.l2.ReadCleanReq_mshr_miss_rate::total     0.934349                       # mshr miss rate for ReadCleanReq accesses
system.l2.ReadCleanReq_avg_mshr_miss_latency::.cpu.inst 84075.282309                       # average ReadCleanReq mshr miss latency
system.l2.ReadCleanReq_avg_mshr_miss_latency::total 84075.282309                       # average ReadCleanReq mshr miss latency
system.l2.ReadSharedReq_hits::.cpu.data          3151                       # number of ReadSharedReq hits
system.l2.ReadSharedReq_hits::total              3151                       # number of ReadSharedReq hits
system.l2.ReadSharedReq_misses::.cpu.data          311                       # number of ReadSharedReq misses
system.l2.ReadSharedReq_misses::total             311                       # number of ReadSharedReq misses
system.l2.ReadSharedReq_miss_latency::.cpu.data     33653000                       # number of ReadSharedReq miss cycles
system.l2.ReadSharedReq_miss_latency::total     33653000                       # number of ReadSharedReq miss cycles
system.l2.ReadSharedReq_accesses::.cpu.data         3462                       # number of ReadSharedReq accesses(hits+misses)
system.l2.ReadSharedReq_accesses::total          3462                       # number of ReadSharedReq accesses(hits+misses)
system.l2.ReadSharedReq_miss_rate::.cpu.data     0.089832                       # miss rate for ReadSharedReq accesses
system.l2.ReadSharedReq_miss_rate::total     0.089832                       # miss rate for ReadSharedReq accesses
system.l2.ReadSharedReq_avg_miss_latency::.cpu.data 108209.003215                       # average ReadSharedReq miss latency
system.l2.ReadSharedReq_avg_miss_latency::total 108209.003215                       # average ReadSharedReq miss latency
system.l2.ReadSharedReq_mshr_hits::.cpu.data            7                       # number of ReadSharedReq MSHR hits
system.l2.ReadSharedReq_mshr_hits::total            7                       # number of ReadSharedReq MSHR hits
system.l2.ReadSharedReq_mshr_misses::.cpu.data          304                       # number of ReadSharedReq MSHR misses
system.l2.ReadSharedReq_mshr_misses::total          304                       # number of ReadSharedReq MSHR misses
system.l2.ReadSharedReq_mshr_miss_latency::.cpu.data     26983000                       # number of ReadSharedReq MSHR miss cycles
system.l2.ReadSharedReq_mshr_miss_latency::total     26983000                       # number of ReadSharedReq MSHR miss cycles
system.l2.ReadSharedReq_mshr_miss_rate::.cpu.data     0.087811                       # mshr miss rate for ReadSharedReq accesses
system.l2.ReadSharedReq_mshr_miss_rate::total     0.087811                       # mshr miss rate for ReadSharedReq accesses
system.l2.ReadSharedReq_avg_mshr_miss_latency::.cpu.data 88759.868421                       # average ReadSharedReq mshr miss latency
system.l2.ReadSharedReq_avg_mshr_miss_latency::total 88759.868421                       # average ReadSharedReq mshr miss latency
system.l2.power_state.pwrStateResidencyTicks::UNDEFINED 117782884000                       # Cumulative time (in ticks) in various power states
system.l2.tags.tagsinuse                  2847.975691                       # Cycle average of tags in use
system.l2.tags.total_refs                       27877                       # Total number of references to valid blocks.
system.l2.tags.sampled_refs                      2946                       # Sample count of references to valid blocks.
system.l2.tags.avg_refs                      9.462661                       # Average number of references to valid blocks.
system.l2.tags.warmup_cycle                     92000                       # Cycle when the warmup percentage was hit.
system.l2.tags.occ_blocks::.cpu.inst       793.722004                       # Average occupied blocks per requestor
system.l2.tags.occ_blocks::.cpu.data      2054.253687                       # Average occupied blocks per requestor
system.l2.tags.occ_percent::.cpu.inst        0.096890                       # Average percentage of cache occupancy
system.l2.tags.occ_percent::.cpu.data        0.250763                       # Average percentage of cache occupancy
system.l2.tags.occ_percent::total            0.347653                       # Average percentage of cache occupancy
system.l2.tags.occ_task_id_blocks::1024          2946                       # Occupied blocks per task id
system.l2.tags.age_task_id_blocks_1024::3            1                       # Occupied blocks per task id
system.l2.tags.age_task_id_blocks_1024::4         2945                       # Occupied blocks per task id
system.l2.tags.occ_task_id_percent::1024     0.359619                       # Percentage of cache occupancy per task id
system.l2.tags.tag_accesses                    226026                       # Number of tag accesses
system.l2.tags.data_accesses                   226026                       # Number of data accesses
system.l2.tags.power_state.pwrStateResidencyTicks::UNDEFINED 117782884000                       # Cumulative time (in ticks) in various power states
system.mem_ctrls.avgPriority_.cpu.inst::samples      1594.00                       # Average QoS priority value for accepted requests
system.mem_ctrls.avgPriority_.cpu.data::samples      4298.00                       # Average QoS priority value for accepted requests
system.mem_ctrls.priorityMinLatency      0.000000018750                       # per QoS priority minimum request to response latency (s)
system.mem_ctrls.priorityMaxLatency      0.000000625000                       # per QoS priority maximum request to response latency (s)
system.mem_ctrls.numReadWriteTurnArounds            0                       # Number of turnarounds from READ to WRITE
system.mem_ctrls.numWriteReadTurnArounds            0                       # Number of turnarounds from WRITE to READ
system.mem_ctrls.numStayReadState               39087                       # Number of times bus staying in READ state
system.mem_ctrls.numStayWriteState                  0                       # Number of times bus staying in WRITE state
system.mem_ctrls.readReqs                        2946                       # Number of read requests accepted
system.mem_ctrls.writeReqs                          0                       # Number of write requests accepted
system.mem_ctrls.readBursts                      5892                       # Number of controller read bursts, including those serviced by the write queue
system.mem_ctrls.writeBursts                        0                       # Number of controller write bursts, including those merged in the write queue
system.mem_ctrls.servicedByWrQ                      0                       # Number of controller read bursts serviced by the write queue
system.mem_ctrls.mergedWrBursts                     0                       # Number of controller write bursts merged with an existing one
system.mem_ctrls.neitherReadNorWriteReqs            0                       # Number of requests that are neither read nor write
system.mem_ctrls.avgRdQLen                       2.00                       # Average read queue length when enqueuing
system.mem_ctrls.avgWrQLen                       0.00                       # Average write queue length when enqueuing
system.mem_ctrls.numRdRetry                         0                       # Number of times read queue was full causing retry
system.mem_ctrls.numWrRetry                         0                       # Number of times write queue was full causing retry
system.mem_ctrls.readPktSize::0                     0                       # Read request sizes (log2)
system.mem_ctrls.readPktSize::1                     0                       # Read request sizes (log2)
system.mem_ctrls.readPktSize::2                     0                       # Read request sizes (log2)
system.mem_ctrls.readPktSize::3                     0                       # Read request sizes (log2)
system.mem_ctrls.readPktSize::4                     0                       # Read request sizes (log2)
system.mem_ctrls.readPktSize::5                     0                       # Read request sizes (log2)
system.mem_ctrls.readPktSize::6                  5892                       # Read request sizes (log2)
system.mem_ctrls.readPktSize::7                     0                       # Read request sizes (log2)
system.mem_ctrls.writePktSize::0                    0                       # Write request sizes (log2)
system.mem_ctrls.writePktSize::1                    0                       # Write request sizes (log2)
system.mem_ctrls.writePktSize::2                    0                       # Write request sizes (log2)
system.mem_ctrls.writePktSize::3                    0                       # Write request sizes (log2)
system.mem_ctrls.writePktSize::4                    0                       # Write request sizes (log2)
system.mem_ctrls.writePktSize::5                    0                       # Write request sizes (log2)
system.mem_ctrls.writePktSize::6                    0                       # Write request sizes (log2)
system.mem_ctrls.writePktSize::7                    0                       # Write request sizes (log2)
system.mem_ctrls.rdQLenPdf::0                    2837                       # What read queue length does an incoming req see
system.mem_ctrls.rdQLenPdf::1                    2846                       # What read queue length does an incoming req see
system.mem_ctrls.rdQLenPdf::2                     105                       # What read queue length does an incoming req see
system.mem_ctrls.rdQLenPdf::3                      96                       # What read queue length does an incoming req see
system.mem_ctrls.rdQLenPdf::4                       4                       # What read queue length does an incoming req see
system.mem_ctrls.rdQLenPdf::5                       4                       # What read queue length does an incoming req see
system.mem_ctrls.rdQLenPdf::6                       0                       # What read queue length does an incoming req see
system.mem_ctrls.rdQLenPdf::7                       0                       # What read queue length does an incoming req see
system.mem_ctrls.rdQLenPdf::8                       0                       # What read queue length does an incoming req see
system.mem_ctrls.rdQLenPdf::9                       0                       # What read queue length does an incoming req see
system.mem_ctrls.rdQLenPdf::10                      0                       # What read queue length does an incoming req see
system.mem_ctrls.rdQLenPdf::11                      0                       # What read queue length does an incoming req see
[...]
system.mem_ctrls.dram.bw_read::.cpu.inst       866136                       # Total read bandwidth from this memory (bytes/s)
system.mem_ctrls.dram.bw_read::.cpu.data      2335416                       # Total read bandwidth from this memory (bytes/s)
system.mem_ctrls.dram.bw_read::total          3201552                       # Total read bandwidth from this memory (bytes/s)
system.mem_ctrls.dram.bw_inst_read::.cpu.inst       866136                       # Instruction read bandwidth from this memory (bytes/s)
system.mem_ctrls.dram.bw_inst_read::total       866136                       # Instruction read bandwidth from this memory (bytes/s)
system.mem_ctrls.dram.bw_total::.cpu.inst       866136                       # Total bandwidth to/from this memory (bytes/s)
system.mem_ctrls.dram.bw_total::.cpu.data      2335416                       # Total bandwidth to/from this memory (bytes/s)
system.mem_ctrls.dram.bw_total::total         3201552                       # Total bandwidth to/from this memory (bytes/s)
system.mem_ctrls.dram.readBursts                 5892                       # Number of DRAM read bursts
system.mem_ctrls.dram.writeBursts                   0                       # Number of DRAM write bursts
system.mem_ctrls.dram.perBankRdBursts::0          288                       # Per bank write bursts
system.mem_ctrls.dram.perBankRdBursts::1          300                       # Per bank write bursts
system.mem_ctrls.dram.perBankRdBursts::2          272                       # Per bank write bursts
system.mem_ctrls.dram.perBankRdBursts::3          436                       # Per bank write bursts
system.mem_ctrls.dram.perBankRdBursts::4          460                       # Per bank write bursts
system.mem_ctrls.dram.perBankRdBursts::5          384                       # Per bank write bursts
system.mem_ctrls.dram.perBankRdBursts::6          398                       # Per bank write bursts
system.mem_ctrls.dram.perBankRdBursts::7          422                       # Per bank write bursts
system.mem_ctrls.dram.perBankRdBursts::8          386                       # Per bank write bursts
system.mem_ctrls.dram.perBankRdBursts::9          316                       # Per bank write bursts
system.mem_ctrls.dram.perBankRdBursts::10          462                       # Per bank write bursts
system.mem_ctrls.dram.perBankRdBursts::11          306                       # Per bank write bursts
system.mem_ctrls.dram.perBankRdBursts::12          318                       # Per bank write bursts
system.mem_ctrls.dram.perBankRdBursts::13          364                       # Per bank write bursts
system.mem_ctrls.dram.perBankRdBursts::14          434                       # Per bank write bursts
system.mem_ctrls.dram.perBankRdBursts::15          346                       # Per bank write bursts
system.mem_ctrls.dram.perBankWrBursts::0            0                       # Per bank write bursts
system.mem_ctrls.dram.perBankWrBursts::1            0                       # Per bank write bursts
system.mem_ctrls.dram.perBankWrBursts::2            0                       # Per bank write bursts
system.mem_ctrls.dram.perBankWrBursts::3            0                       # Per bank write bursts
system.mem_ctrls.dram.perBankWrBursts::4            0                       # Per bank write bursts
system.mem_ctrls.dram.perBankWrBursts::5            0                       # Per bank write bursts
system.mem_ctrls.dram.perBankWrBursts::6            0                       # Per bank write bursts
system.mem_ctrls.dram.perBankWrBursts::7            0                       # Per bank write bursts
system.mem_ctrls.dram.perBankWrBursts::8            0                       # Per bank write bursts
system.mem_ctrls.dram.perBankWrBursts::9            0                       # Per bank write bursts
system.mem_ctrls.dram.perBankWrBursts::10            0                       # Per bank write bursts
system.mem_ctrls.dram.perBankWrBursts::11            0                       # Per bank write bursts
system.mem_ctrls.dram.perBankWrBursts::12            0                       # Per bank write bursts
system.mem_ctrls.dram.perBankWrBursts::13            0                       # Per bank write bursts
system.mem_ctrls.dram.perBankWrBursts::14            0                       # Per bank write bursts
system.mem_ctrls.dram.perBankWrBursts::15            0                       # Per bank write bursts
system.mem_ctrls.dram.totQLat                76753500                       # Total ticks spent queuing
system.mem_ctrls.dram.totBusLat              29460000                       # Total ticks spent in databus transfers
system.mem_ctrls.dram.totMemAccLat          187228500                       # Total ticks spent from burst creation until serviced by the DRAM
system.mem_ctrls.dram.avgQLat                13026.73                       # Average queueing delay per DRAM burst
system.mem_ctrls.dram.avgBusLat               5000.00                       # Average bus latency per DRAM burst
system.mem_ctrls.dram.avgMemAccLat           31776.73                       # Average memory access latency per DRAM burst
system.mem_ctrls.dram.readRowHits                4721                       # Number of row buffer hits during reads
system.mem_ctrls.dram.writeRowHits                  0                       # Number of row buffer hits during writes
system.mem_ctrls.dram.readRowHitRate            80.13                       # Row buffer hit rate for reads
system.mem_ctrls.dram.writeRowHitRate             nan                       # Row buffer hit rate for writes
system.mem_ctrls.dram.bytesPerActivate::samples         1171                       # Bytes accessed per row activation
system.mem_ctrls.dram.bytesPerActivate::mean   322.022203                       # Bytes accessed per row activation
system.mem_ctrls.dram.bytesPerActivate::gmean   236.114167                       # Bytes accessed per row activation
system.mem_ctrls.dram.bytesPerActivate::stdev   294.189629                       # Bytes accessed per row activation
system.mem_ctrls.dram.bytesPerActivate::128-255          579     49.44%     49.44% # Bytes accessed per row activation
system.mem_ctrls.dram.bytesPerActivate::256-383          285     24.34%     73.78% # Bytes accessed per row activation
system.mem_ctrls.dram.bytesPerActivate::384-511           71      6.06%     79.85% # Bytes accessed per row activation
system.mem_ctrls.dram.bytesPerActivate::512-639           39      3.33%     83.18% # Bytes accessed per row activation
system.mem_ctrls.dram.bytesPerActivate::640-767           30      2.56%     85.74% # Bytes accessed per row activation
system.mem_ctrls.dram.bytesPerActivate::768-895           21      1.79%     87.53% # Bytes accessed per row activation
system.mem_ctrls.dram.bytesPerActivate::896-1023           16      1.37%     88.90% # Bytes accessed per row activation
system.mem_ctrls.dram.bytesPerActivate::1024-1151          130     11.10%    100.00% # Bytes accessed per row activation
system.mem_ctrls.dram.bytesPerActivate::total         1171                       # Bytes accessed per row activation
system.mem_ctrls.dram.bytesRead                377088                       # Total number of bytes read from DRAM
system.mem_ctrls.dram.bytesWritten                  0                       # Total number of bytes written to DRAM
system.mem_ctrls.dram.avgRdBW                3.201552                       # Average DRAM read bandwidth in MiBytes/s
system.mem_ctrls.dram.avgWrBW                       0                       # Average DRAM write bandwidth in MiBytes/s
system.mem_ctrls.dram.peakBW                 12800.00                       # Theoretical peak bandwidth in MiByte/s
system.mem_ctrls.dram.busUtil                    0.03                       # Data bus utilization in percentage
system.mem_ctrls.dram.busUtilRead                0.03                       # Data bus utilization in percentage for reads
system.mem_ctrls.dram.busUtilWrite               0.00                       # Data bus utilization in percentage for writes
system.mem_ctrls.dram.pageHitRate               80.13                       # Row buffer hit rate, read and write combined
system.mem_ctrls.dram.power_state.pwrStateResidencyTicks::UNDEFINED 117782884000                       # Cumulative time (in ticks) in various power states
system.mem_ctrls.dram.rank0.actEnergy         4348260                       # Energy for activate commands per rank (pJ)
system.mem_ctrls.dram.rank0.preEnergy         2311155                       # Energy for precharge commands per rank (pJ)
system.mem_ctrls.dram.rank0.readEnergy       21134400                       # Energy for read commands per rank (pJ)
system.mem_ctrls.dram.rank0.writeEnergy             0                       # Energy for write commands per rank (pJ)
system.mem_ctrls.dram.rank0.refreshEnergy 9297659280.000002                       # Energy for refresh commands per rank (pJ)
system.mem_ctrls.dram.rank0.actBackEnergy   2352661890                       # Energy for active background per rank (pJ)
system.mem_ctrls.dram.rank0.preBackEnergy  43247438880                       # Energy for precharge background per rank (pJ)
system.mem_ctrls.dram.rank0.actPowerDownEnergy            0                       # Energy for active power-down per rank (pJ)
system.mem_ctrls.dram.rank0.prePowerDownEnergy            0                       # Energy for precharge power-down per rank (pJ)
system.mem_ctrls.dram.rank0.selfRefreshEnergy            0                       # Energy for self refresh per rank (pJ)
system.mem_ctrls.dram.rank0.totalEnergy   54925553865                       # Total energy per rank (pJ)
system.mem_ctrls.dram.rank0.averagePower   466.328825                       # Core power per rank (mW)
system.mem_ctrls.dram.rank0.totalIdleTime            0                       # Total Idle time Per DRAM Rank
system.mem_ctrls.dram.rank0.pwrStateTime::IDLE 112410720250                       # Time in different power states
system.mem_ctrls.dram.rank0.pwrStateTime::REF   3933020000                       # Time in different power states
system.mem_ctrls.dram.rank0.pwrStateTime::SREF            0                       # Time in different power states
system.mem_ctrls.dram.rank0.pwrStateTime::PRE_PDN            0                       # Time in different power states
system.mem_ctrls.dram.rank0.pwrStateTime::ACT   1439143750                       # Time in different power states
system.mem_ctrls.dram.rank0.pwrStateTime::ACT_PDN            0                       # Time in different power states
system.mem_ctrls.dram.rank1.actEnergy         4012680                       # Energy for activate commands per rank (pJ)
system.mem_ctrls.dram.rank1.preEnergy         2132790                       # Energy for precharge commands per rank (pJ)
system.mem_ctrls.dram.rank1.readEnergy       20934480                       # Energy for read commands per rank (pJ)
system.mem_ctrls.dram.rank1.writeEnergy             0                       # Energy for write commands per rank (pJ)
system.mem_ctrls.dram.rank1.refreshEnergy 9297659280.000002                       # Energy for refresh commands per rank (pJ)
system.mem_ctrls.dram.rank1.actBackEnergy   2333431230                       # Energy for active background per rank (pJ)
system.mem_ctrls.dram.rank1.preBackEnergy  43263633120                       # Energy for precharge background per rank (pJ)
system.mem_ctrls.dram.rank1.actPowerDownEnergy            0                       # Energy for active power-down per rank (pJ)
system.mem_ctrls.dram.rank1.prePowerDownEnergy            0                       # Energy for precharge power-down per rank (pJ)
system.mem_ctrls.dram.rank1.selfRefreshEnergy            0                       # Energy for self refresh per rank (pJ)
system.mem_ctrls.dram.rank1.totalEnergy   54921803580                       # Total energy per rank (pJ)
system.mem_ctrls.dram.rank1.averagePower   466.296984                       # Core power per rank (mW)
system.mem_ctrls.dram.rank1.totalIdleTime            0                       # Total Idle time Per DRAM Rank
system.mem_ctrls.dram.rank1.pwrStateTime::IDLE 112453106000                       # Time in different power states
system.mem_ctrls.dram.rank1.pwrStateTime::REF   3933020000                       # Time in different power states
system.mem_ctrls.dram.rank1.pwrStateTime::SREF            0                       # Time in different power states
system.mem_ctrls.dram.rank1.pwrStateTime::PRE_PDN            0                       # Time in different power states
system.mem_ctrls.dram.rank1.pwrStateTime::ACT   1396758000                       # Time in different power states
system.mem_ctrls.dram.rank1.pwrStateTime::ACT_PDN            0                       # Time in different power states
system.mem_ctrls.power_state.pwrStateResidencyTicks::UNDEFINED 117782884000                       # Cumulative time (in ticks) in various power states
system.membus.trans_dist::ReadResp               1101                       # Transaction distribution
system.membus.trans_dist::ReadExReq              1845                       # Transaction distribution
system.membus.trans_dist::ReadExResp             1845                       # Transaction distribution
system.membus.trans_dist::ReadSharedReq          1101                       # Transaction distribution
system.membus.pkt_count_system.l2.mem_side_port::system.mem_ctrls.port         5892                       # Packet count per connected requestor and responder (bytes)
system.membus.pkt_count::total                   5892                       # Packet count per connected requestor and responder (bytes)
system.membus.pkt_size_system.l2.mem_side_port::system.mem_ctrls.port       377088                       # Cumulative packet size per connected requestor and responder (bytes)
system.membus.pkt_size::total                  377088                       # Cumulative packet size per connected requestor and responder (bytes)
system.membus.snoops                                0                       # Total snoops (count)
system.membus.snoopTraffic                          0                       # Total snoop traffic (bytes)
system.membus.snoop_fanout::samples              2946                       # Request fanout histogram
system.membus.snoop_fanout::mean                    0                       # Request fanout histogram
system.membus.snoop_fanout::stdev                   0                       # Request fanout histogram
system.membus.snoop_fanout::underflows              0      0.00%      0.00% # Request fanout histogram
system.membus.snoop_fanout::0                    2946    100.00%    100.00% # Request fanout histogram
system.membus.snoop_fanout::1                       0      0.00%    100.00% # Request fanout histogram
system.membus.snoop_fanout::overflows               0      0.00%    100.00% # Request fanout histogram
system.membus.snoop_fanout::min_value               0                       # Request fanout histogram
system.membus.snoop_fanout::max_value               0                       # Request fanout histogram
system.membus.snoop_fanout::total                2946                       # Request fanout histogram
system.membus.power_state.pwrStateResidencyTicks::UNDEFINED 117782884000                       # Cumulative time (in ticks) in various power states
system.membus.reqLayer0.occupancy             2946000                       # Layer occupancy (ticks)
system.membus.reqLayer0.utilization               0.0                       # Layer utilization (%)
system.membus.respLayer1.occupancy           27560750                       # Layer occupancy (ticks)
system.membus.respLayer1.utilization              0.0                       # Layer utilization (%)
system.tol2bus.trans_dist::ReadResp              4315                       # Transaction distribution
system.tol2bus.trans_dist::WritebackDirty        12432                       # Transaction distribution
system.tol2bus.trans_dist::WritebackClean           86                       # Transaction distribution
system.tol2bus.trans_dist::CleanEvict             682                       # Transaction distribution
system.tol2bus.trans_dist::ReadExReq            10676                       # Transaction distribution
system.tol2bus.trans_dist::ReadExResp           10676                       # Transaction distribution
system.tol2bus.trans_dist::ReadCleanReq           853                       # Transaction distribution
system.tol2bus.trans_dist::ReadSharedReq         3462                       # Transaction distribution
system.tol2bus.pkt_count_system.cpu.icache.mem_side_port::system.l2.cpu_side_port         1792                       # Packet count per connected requestor and responder (bytes)
system.tol2bus.pkt_count_system.cpu.dcache.mem_side_port::system.l2.cpu_side_port        41390                       # Packet count per connected requestor and responder (bytes)
system.tol2bus.pkt_count::total                 43182                       # Packet count per connected requestor and responder (bytes)
system.tol2bus.pkt_size_system.cpu.icache.mem_side_port::system.l2.cpu_side_port       120192                       # Cumulative packet size per connected requestor and responder (bytes)
system.tol2bus.pkt_size_system.cpu.dcache.mem_side_port::system.l2.cpu_side_port      3400960                       # Cumulative packet size per connected requestor and responder (bytes)
system.tol2bus.pkt_size::total                3521152                       # Cumulative packet size per connected requestor and responder (bytes)
system.tol2bus.snoops                               0                       # Total snoops (count)
system.tol2bus.snoopTraffic                         0                       # Total snoop traffic (bytes)
system.tol2bus.snoop_fanout::samples            14991                       # Request fanout histogram
system.tol2bus.snoop_fanout::mean            0.021413                       # Request fanout histogram
system.tol2bus.snoop_fanout::stdev           0.144761                       # Request fanout histogram
system.tol2bus.snoop_fanout::underflows             0      0.00%      0.00% # Request fanout histogram
system.tol2bus.snoop_fanout::0                  14670     97.86%     97.86% # Request fanout histogram
system.tol2bus.snoop_fanout::1                    321      2.14%    100.00% # Request fanout histogram
system.tol2bus.snoop_fanout::2                      0      0.00%    100.00% # Request fanout histogram
system.tol2bus.snoop_fanout::overflows              0      0.00%    100.00% # Request fanout histogram
system.tol2bus.snoop_fanout::min_value              0                       # Request fanout histogram
system.tol2bus.snoop_fanout::max_value              1                       # Request fanout histogram
system.tol2bus.snoop_fanout::total              14991                       # Request fanout histogram
system.tol2bus.power_state.pwrStateResidencyTicks::UNDEFINED 117782884000                       # Cumulative time (in ticks) in various power states
system.tol2bus.reqLayer0.occupancy           78263000                       # Layer occupancy (ticks)
system.tol2bus.reqLayer0.utilization              0.1                       # Layer utilization (%)
system.tol2bus.respLayer0.occupancy           4265999                       # Layer occupancy (ticks)
system.tol2bus.respLayer0.utilization             0.0                       # Layer utilization (%)
system.tol2bus.respLayer1.occupancy          70696993                       # Layer occupancy (ticks)
system.tol2bus.respLayer1.utilization             0.1                       # Layer utilization (%)
system.voltage_domain.voltage                       1                       # Voltage in Volts

---------- End Simulation Statistics   ----------
