
---------- Begin Simulation Statistics ----------
final_tick                               165496781000                       # Number of ticks from beginning of simulation (restored from checkpoints and never reset)
host_inst_rate                                 218154                       # Simulator instruction rate (inst/s)
host_mem_usage                                 658592                       # Number of bytes of host memory used
host_op_rate                                   218162                       # Simulator op (including micro ops) rate (op/s)
host_seconds                                   458.39                       # Real time elapsed on the host
host_tick_rate                              361038297                       # Simulator tick rate (ticks/s)
sim_freq                                 1000000000000                       # Frequency of simulated ticks
sim_insts                                   100000000                       # Number of instructions simulated
sim_ops                                     100003630                       # Number of ops (including micro ops) simulated
sim_seconds                                  0.165497                       # Number of seconds simulated
sim_ticks                                165496781000                       # Number of ticks simulated
system.cpu.committedInsts                   100000000                       # Number of instructions committed
system.cpu.committedOps                     100003630                       # Number of ops (including micro ops) committed
system.cpu.cpi                               1.654968                       # CPI: cycles per instruction
system.cpu.discardedOps                         21246                       # Number of ops (including micro ops) which were discarded before commit
system.cpu.idleCycles                        51782506                       # Total number of cycles that the object has spent stopped
system.cpu.ipc                               0.604241                       # IPC: instructions per cycle
system.cpu.numCycles                        165496781                       # number of cpu cycles simulated
system.cpu.numFetchSuspends                         0                       # Number of times Execute suspended instruction fetching
system.cpu.numWorkItemsCompleted                    0                       # number of work items this cpu completed
system.cpu.numWorkItemsStarted                      0                       # number of work items this cpu started
system.cpu.op_class_0::No_OpClass                   0      0.00%      0.00% # Class of committed instruction
system.cpu.op_class_0::IntAlu                49995350     49.99%     49.99% # Class of committed instruction
system.cpu.op_class_0::IntMult                     88      0.00%     49.99% # Class of committed instruction
system.cpu.op_class_0::IntDiv                       0      0.00%     49.99% # Class of committed instruction
system.cpu.op_class_0::FloatAdd                     0      0.00%     49.99% # Class of committed instruction
system.cpu.op_class_0::FloatCmp                     0      0.00%     49.99% # Class of committed instruction
system.cpu.op_class_0::FloatCvt                     0      0.00%     49.99% # Class of committed instruction
system.cpu.op_class_0::FloatMult                    0      0.00%     49.99% # Class of committed instruction
system.cpu.op_class_0::FloatMultAcc                 0      0.00%     49.99% # Class of committed instruction
system.cpu.op_class_0::FloatDiv                     0      0.00%     49.99% # Class of committed instruction
system.cpu.op_class_0::FloatMisc                    0      0.00%     49.99% # Class of committed instruction
system.cpu.op_class_0::FloatSqrt                    0      0.00%     49.99% # Class of committed instruction
system.cpu.op_class_0::SimdAdd                      0      0.00%     49.99% # Class of committed instruction
system.cpu.op_class_0::SimdAddAcc                   0      0.00%     49.99% # Class of committed instruction
system.cpu.op_class_0::SimdAlu                      0      0.00%     49.99% # Class of committed instruction
system.cpu.op_class_0::SimdCmp                      0      0.00%     49.99% # Class of committed instruction
system.cpu.op_class_0::SimdCvt                      0      0.00%     49.99% # Class of committed instruction
system.cpu.op_class_0::SimdMisc                     0      0.00%     49.99% # Class of committed instruction
system.cpu.op_class_0::SimdMult                     0      0.00%     49.99% # Class of committed instruction
system.cpu.op_class_0::SimdMultAcc                  0      0.00%     49.99% # Class of committed instruction
system.cpu.op_class_0::SimdShift                    0      0.00%     49.99% # Class of committed instruction
system.cpu.op_class_0::SimdShiftAcc                 0      0.00%     49.99% # Class of committed instruction
system.cpu.op_class_0::SimdDiv                      0      0.00%     49.99% # Class of committed instruction
system.cpu.op_class_0::SimdSqrt                     0      0.00%     49.99% # Class of committed instruction
system.cpu.op_class_0::SimdFloatAdd                 0      0.00%     49.99% # Class of committed instruction
system.cpu.op_class_0::SimdFloatAlu                 0      0.00%     49.99% # Class of committed instruction
system.cpu.op_class_0::SimdFloatCmp                 2      0.00%     49.99% # Class of committed instruction
system.cpu.op_class_0::SimdFloatCvt                 0      0.00%     49.99% # Class of committed instruction
system.cpu.op_class_0::SimdFloatDiv                 0      0.00%     49.99% # Class of committed instruction
system.cpu.op_class_0::SimdFloatMisc               22      0.00%     49.99% # Class of committed instruction
system.cpu.op_class_0::SimdFloatMult                0      0.00%     49.99% # Class of committed instruction
system.cpu.op_class_0::SimdFloatMultAcc             0      0.00%     49.99% # Class of committed instruction
system.cpu.op_class_0::SimdFloatSqrt                0      0.00%     49.99% # Class of committed instruction
system.cpu.op_class_0::SimdReduceAdd                0      0.00%     49.99% # Class of committed instruction
system.cpu.op_class_0::SimdReduceAlu                0      0.00%     49.99% # Class of committed instruction
system.cpu.op_class_0::SimdReduceCmp                0      0.00%     49.99% # Class of committed instruction
system.cpu.op_class_0::SimdFloatReduceAdd            0      0.00%     49.99% # Class of committed instruction
system.cpu.op_class_0::SimdFloatReduceCmp            0      0.00%     49.99% # Class of committed instruction
system.cpu.op_class_0::SimdAes                      0      0.00%     49.99% # Class of committed instruction
system.cpu.op_class_0::SimdAesMix                   0      0.00%     49.99% # Class of committed instruction
system.cpu.op_class_0::SimdSha1Hash                 0      0.00%     49.99% # Class of committed instruction
system.cpu.op_class_0::SimdSha1Hash2                0      0.00%     49.99% # Class of committed instruction
system.cpu.op_class_0::SimdSha256Hash               0      0.00%     49.99% # Class of committed instruction
system.cpu.op_class_0::SimdSha256Hash2              0      0.00%     49.99% # Class of committed instruction
system.cpu.op_class_0::SimdShaSigma2                0      0.00%     49.99% # Class of committed instruction
system.cpu.op_class_0::SimdShaSigma3                0      0.00%     49.99% # Class of committed instruction
system.cpu.op_class_0::SimdPredAlu                  0      0.00%     49.99% # Class of committed instruction
system.cpu.op_class_0::MemRead               36892285     36.89%     86.88% # Class of committed instruction
system.cpu.op_class_0::MemWrite              13115883     13.12%    100.00% # Class of committed instruction
system.cpu.op_class_0::FloatMemRead                 0      0.00%    100.00% # Class of committed instruction
system.cpu.op_class_0::FloatMemWrite                0      0.00%    100.00% # Class of committed instruction
system.cpu.op_class_0::IprAccess                    0      0.00%    100.00% # Class of committed instruction
system.cpu.op_class_0::InstPrefetch                 0      0.00%    100.00% # Class of committed instruction
system.cpu.op_class_0::total                100003630                       # Class of committed instruction
system.cpu.tickCycles                       113714275                       # Number of cycles that the object actually ticked
system.cpu.workload.numSyscalls                    19                       # Number of system calls
system.membus.snoop_filter.hit_multi_requests            0                       # Number of requests hitting in the snoop filter with multiple (>1) holders of the requested data.
system.membus.snoop_filter.hit_multi_snoops            0                       # Number of snoops hitting in the snoop filter with multiple (>1) holders of the requested data.
system.membus.snoop_filter.hit_single_requests       369955                       # Number of requests hitting in the snoop filter with a single holder of the requested data.
system.membus.snoop_filter.hit_single_snoops            0                       # Number of snoops hitting in the snoop filter with a single holder of the requested data.
system.membus.snoop_filter.tot_requests        742126                       # Total number of requests made to the snoop filter.
system.membus.snoop_filter.tot_snoops               0                       # Total number of snoops made to the snoop filter.
system.tol2bus.snoop_filter.hit_multi_requests           36                       # Number of requests hitting in the snoop filter with multiple (>1) holders of the requested data.
system.tol2bus.snoop_filter.hit_multi_snoops            1                       # Number of snoops hitting in the snoop filter with multiple (>1) holders of the requested data.
system.tol2bus.snoop_filter.hit_single_requests       371808                       # Number of requests hitting in the snoop filter with a single holder of the requested data.
system.tol2bus.snoop_filter.hit_single_snoops          167                       # Number of snoops hitting in the snoop filter with a single holder of the requested data.
system.tol2bus.snoop_filter.tot_requests       744037                       # Total number of requests made to the snoop filter.
system.tol2bus.snoop_filter.tot_snoops            168                       # Total number of snoops made to the snoop filter.
system.clk_domain.clock                          1000                       # Clock period in ticks
system.cpu.branchPred.lookups                  606662                       # Number of BP lookups
system.cpu.branchPred.condPredicted            604523                       # Number of conditional branches predicted
system.cpu.branchPred.condIncorrect               823                       # Number of conditional branches incorrect
system.cpu.branchPred.BTBLookups               602593                       # Number of BTB lookups
system.cpu.branchPred.BTBHits                  601419                       # Number of BTB hits
system.cpu.branchPred.BTBHitPct             99.805175                       # BTB Hit Percentage
system.cpu.branchPred.RASUsed                     571                       # Number of times the RAS was used to get a target.
system.cpu.branchPred.RASIncorrect                  2                       # Number of incorrect RAS predictions.
system.cpu.branchPred.indirectLookups             373                       # Number of indirect predictor lookups.
system.cpu.branchPred.indirectHits                174                       # Number of indirect target hits.
system.cpu.branchPred.indirectMisses              199                       # Number of indirect misses.
system.cpu.branchPred.indirectMispredicted          102                       # Number of mispredicted indirect branches.
system.cpu.dcache.demand_hits::.cpu.data     48051349                       # number of demand (read+write) hits
system.cpu.dcache.demand_hits::total         48051349                       # number of demand (read+write) hits
system.cpu.dcache.overall_hits::.cpu.data     48051393                       # number of overall hits
system.cpu.dcache.overall_hits::total        48051393                       # number of overall hits
system.cpu.dcache.demand_misses::.cpu.data       743840                       # number of demand (read+write) misses
system.cpu.dcache.demand_misses::total         743840                       # number of demand (read+write) misses
system.cpu.dcache.overall_misses::.cpu.data       743848                       # number of overall misses
system.cpu.dcache.overall_misses::total        743848                       # number of overall misses
system.cpu.dcache.demand_miss_latency::.cpu.data  91298025000                       # number of demand (read+write) miss cycles
system.cpu.dcache.demand_miss_latency::total  91298025000                       # number of demand (read+write) miss cycles
system.cpu.dcache.overall_miss_latency::.cpu.data  91298025000                       # number of overall miss cycles
system.cpu.dcache.overall_miss_latency::total  91298025000                       # number of overall miss cycles
system.cpu.dcache.demand_accesses::.cpu.data     48795189                       # number of demand (read+write) accesses
system.cpu.dcache.demand_accesses::total     48795189                       # number of demand (read+write) accesses
system.cpu.dcache.overall_accesses::.cpu.data     48795241                       # number of overall (read+write) accesses
system.cpu.dcache.overall_accesses::total     48795241                       # number of overall (read+write) accesses
system.cpu.dcache.demand_miss_rate::.cpu.data     0.015244                       # miss rate for demand accesses
system.cpu.dcache.demand_miss_rate::total     0.015244                       # miss rate for demand accesses
system.cpu.dcache.overall_miss_rate::.cpu.data     0.015244                       # miss rate for overall accesses
system.cpu.dcache.overall_miss_rate::total     0.015244                       # miss rate for overall accesses
system.cpu.dcache.demand_avg_miss_latency::.cpu.data 122738.794633                       # average overall miss latency
system.cpu.dcache.demand_avg_miss_latency::total 122738.794633                       # average overall miss latency
system.cpu.dcache.overall_avg_miss_latency::.cpu.data 122737.474592                       # average overall miss latency
system.cpu.dcache.overall_avg_miss_latency::total 122737.474592                       # average overall miss latency
system.cpu.dcache.blocked_cycles::no_mshrs            0                       # number of cycles access was blocked
system.cpu.dcache.blocked_cycles::no_targets            0                       # number of cycles access was blocked
system.cpu.dcache.blocked::no_mshrs                 0                       # number of cycles access was blocked
system.cpu.dcache.blocked::no_targets               0                       # number of cycles access was blocked
system.cpu.dcache.avg_blocked_cycles::no_mshrs          nan                       # average number of cycles each access was blocked
system.cpu.dcache.avg_blocked_cycles::no_targets          nan                       # average number of cycles each access was blocked
system.cpu.dcache.writebacks::.writebacks       371642                       # number of writebacks
system.cpu.dcache.writebacks::total            371642                       # number of writebacks
system.cpu.dcache.demand_mshr_hits::.cpu.data       371883                       # number of demand (read+write) MSHR hits
system.cpu.dcache.demand_mshr_hits::total       371883                       # number of demand (read+write) MSHR hits
system.cpu.dcache.overall_mshr_hits::.cpu.data       371883                       # number of overall MSHR hits
system.cpu.dcache.overall_mshr_hits::total       371883                       # number of overall MSHR hits
system.cpu.dcache.demand_mshr_misses::.cpu.data       371957                       # number of demand (read+write) MSHR misses
system.cpu.dcache.demand_mshr_misses::total       371957                       # number of demand (read+write) MSHR misses
system.cpu.dcache.overall_mshr_misses::.cpu.data       371960                       # number of overall MSHR misses
system.cpu.dcache.overall_mshr_misses::total       371960                       # number of overall MSHR misses
system.cpu.dcache.demand_mshr_miss_latency::.cpu.data  45764060000                       # number of demand (read+write) MSHR miss cycles
system.cpu.dcache.demand_mshr_miss_latency::total  45764060000                       # number of demand (read+write) MSHR miss cycles
system.cpu.dcache.overall_mshr_miss_latency::.cpu.data  45764384000                       # number of overall MSHR miss cycles
system.cpu.dcache.overall_mshr_miss_latency::total  45764384000                       # number of overall MSHR miss cycles
system.cpu.dcache.demand_mshr_miss_rate::.cpu.data     0.007623                       # mshr miss rate for demand accesses
system.cpu.dcache.demand_mshr_miss_rate::total     0.007623                       # mshr miss rate for demand accesses
system.cpu.dcache.overall_mshr_miss_rate::.cpu.data     0.007623                       # mshr miss rate for overall accesses
system.cpu.dcache.overall_mshr_miss_rate::total     0.007623                       # mshr miss rate for overall accesses
system.cpu.dcache.demand_avg_mshr_miss_latency::.cpu.data 123035.888557                       # average overall mshr miss latency
system.cpu.dcache.demand_avg_mshr_miss_latency::total 123035.888557                       # average overall mshr miss latency
system.cpu.dcache.overall_avg_mshr_miss_latency::.cpu.data 123035.767287                       # average overall mshr miss latency
system.cpu.dcache.overall_avg_mshr_miss_latency::total 123035.767287                       # average overall mshr miss latency
system.cpu.dcache.replacements                 371704                       # number of replacements
system.cpu.dcache.ReadReq_hits::.cpu.data     35702589                       # number of ReadReq hits
system.cpu.dcache.ReadReq_hits::total        35702589                       # number of ReadReq hits
system.cpu.dcache.ReadReq_misses::.cpu.data           78                       # number of ReadReq misses
system.cpu.dcache.ReadReq_misses::total            78                       # number of ReadReq misses
system.cpu.dcache.ReadReq_miss_latency::.cpu.data      7656000                       # number of ReadReq miss cycles
system.cpu.dcache.ReadReq_miss_latency::total      7656000                       # number of ReadReq miss cycles
system.cpu.dcache.ReadReq_accesses::.cpu.data     35702667                       # number of ReadReq accesses(hits+misses)
system.cpu.dcache.ReadReq_accesses::total     35702667                       # number of ReadReq accesses(hits+misses)
system.cpu.dcache.ReadReq_miss_rate::.cpu.data     0.000002                       # miss rate for ReadReq accesses
system.cpu.dcache.ReadReq_miss_rate::total     0.000002                       # miss rate for ReadReq accesses
system.cpu.dcache.ReadReq_avg_miss_latency::.cpu.data 98153.846154                       # average ReadReq miss latency
system.cpu.dcache.ReadReq_avg_miss_latency::total 98153.846154                       # average ReadReq miss latency
system.cpu.dcache.ReadReq_mshr_hits::.cpu.data            7                       # number of ReadReq MSHR hits
system.cpu.dcache.ReadReq_mshr_hits::total            7                       # number of ReadReq MSHR hits
system.cpu.dcache.ReadReq_mshr_misses::.cpu.data           71                       # number of ReadReq MSHR misses
system.cpu.dcache.ReadReq_mshr_misses::total           71                       # number of ReadReq MSHR misses
system.cpu.dcache.ReadReq_mshr_miss_latency::.cpu.data      6738000                       # number of ReadReq MSHR miss cycles
system.cpu.dcache.ReadReq_mshr_miss_latency::total      6738000                       # number of ReadReq MSHR miss cycles
system.cpu.dcache.ReadReq_mshr_miss_rate::.cpu.data     0.000002                       # mshr miss rate for ReadReq accesses
system.cpu.dcache.ReadReq_mshr_miss_rate::total     0.000002                       # mshr miss rate for ReadReq accesses
system.cpu.dcache.ReadReq_avg_mshr_miss_latency::.cpu.data 94901.408451                       # average ReadReq mshr miss latency
system.cpu.dcache.ReadReq_avg_mshr_miss_latency::total 94901.408451                       # average ReadReq mshr miss latency
system.cpu.dcache.WriteReq_hits::.cpu.data     12348760                       # number of WriteReq hits
system.cpu.dcache.WriteReq_hits::total       12348760                       # number of WriteReq hits
system.cpu.dcache.WriteReq_misses::.cpu.data       743762                       # number of WriteReq misses
system.cpu.dcache.WriteReq_misses::total       743762                       # number of WriteReq misses
system.cpu.dcache.WriteReq_miss_latency::.cpu.data  91290369000                       # number of WriteReq miss cycles
system.cpu.dcache.WriteReq_miss_latency::total  91290369000                       # number of WriteReq miss cycles
system.cpu.dcache.WriteReq_accesses::.cpu.data     13092522                       # number of WriteReq accesses(hits+misses)
system.cpu.dcache.WriteReq_accesses::total     13092522                       # number of WriteReq accesses(hits+misses)
system.cpu.dcache.WriteReq_miss_rate::.cpu.data     0.056808                       # miss rate for WriteReq accesses
system.cpu.dcache.WriteReq_miss_rate::total     0.056808                       # miss rate for WriteReq accesses
system.cpu.dcache.WriteReq_avg_miss_latency::.cpu.data 122741.372912                       # average WriteReq miss latency
system.cpu.dcache.WriteReq_avg_miss_latency::total 122741.372912                       # average WriteReq miss latency
system.cpu.dcache.WriteReq_mshr_hits::.cpu.data       371876                       # number of WriteReq MSHR hits
system.cpu.dcache.WriteReq_mshr_hits::total       371876                       # number of WriteReq MSHR hits
system.cpu.dcache.WriteReq_mshr_misses::.cpu.data       371886                       # number of WriteReq MSHR misses
system.cpu.dcache.WriteReq_mshr_misses::total       371886                       # number of WriteReq MSHR misses
system.cpu.dcache.WriteReq_mshr_miss_latency::.cpu.data  45757322000                       # number of WriteReq MSHR miss cycles
system.cpu.dcache.WriteReq_mshr_miss_latency::total  45757322000                       # number of WriteReq MSHR miss cycles
system.cpu.dcache.WriteReq_mshr_miss_rate::.cpu.data     0.028404                       # mshr miss rate for WriteReq accesses
system.cpu.dcache.WriteReq_mshr_miss_rate::total     0.028404                       # mshr miss rate for WriteReq accesses
system.cpu.dcache.WriteReq_avg_mshr_miss_latency::.cpu.data 123041.259956                       # average WriteReq mshr miss latency
system.cpu.dcache.WriteReq_avg_mshr_miss_latency::total 123041.259956                       # average WriteReq mshr miss latency
system.cpu.dcache.SoftPFReq_hits::.cpu.data           44                       # number of SoftPFReq hits
system.cpu.dcache.SoftPFReq_hits::total            44                       # number of SoftPFReq hits
system.cpu.dcache.SoftPFReq_misses::.cpu.data            8                       # number of SoftPFReq misses
system.cpu.dcache.SoftPFReq_misses::total            8                       # number of SoftPFReq misses
system.cpu.dcache.SoftPFReq_accesses::.cpu.data           52                       # number of SoftPFReq accesses(hits+misses)
system.cpu.dcache.SoftPFReq_accesses::total           52                       # number of SoftPFReq accesses(hits+misses)
system.cpu.dcache.SoftPFReq_miss_rate::.cpu.data     0.153846                       # miss rate for SoftPFReq accesses
system.cpu.dcache.SoftPFReq_miss_rate::total     0.153846                       # miss rate for SoftPFReq accesses
system.cpu.dcache.SoftPFReq_mshr_misses::.cpu.data            3                       # number of SoftPFReq MSHR misses
system.cpu.dcache.SoftPFReq_mshr_misses::total            3                       # number of SoftPFReq MSHR misses
system.cpu.dcache.SoftPFReq_mshr_miss_latency::.cpu.data       324000                       # number of SoftPFReq MSHR miss cycles
system.cpu.dcache.SoftPFReq_mshr_miss_latency::total       324000                       # number of SoftPFReq MSHR miss cycles
system.cpu.dcache.SoftPFReq_mshr_miss_rate::.cpu.data     0.057692                       # mshr miss rate for SoftPFReq accesses
system.cpu.dcache.SoftPFReq_mshr_miss_rate::total     0.057692                       # mshr miss rate for SoftPFReq accesses
system.cpu.dcache.SoftPFReq_avg_mshr_miss_latency::.cpu.data       108000                       # average SoftPFReq mshr miss latency
system.cpu.dcache.SoftPFReq_avg_mshr_miss_latency::total       108000                       # average SoftPFReq mshr miss latency
system.cpu.dcache.LoadLockedReq_hits::.cpu.data           14                       # number of LoadLockedReq hits
system.cpu.dcache.LoadLockedReq_hits::total           14                       # number of LoadLockedReq hits
system.cpu.dcache.LoadLockedReq_accesses::.cpu.data           14                       # number of LoadLockedReq accesses(hits+misses)
system.cpu.dcache.LoadLockedReq_accesses::total           14                       # number of LoadLockedReq accesses(hits+misses)
system.cpu.dcache.StoreCondReq_hits::.cpu.data           14                       # number of StoreCondReq hits
system.cpu.dcache.StoreCondReq_hits::total           14                       # number of StoreCondReq hits
system.cpu.dcache.StoreCondReq_accesses::.cpu.data           14                       # number of StoreCondReq accesses(hits+misses)
system.cpu.dcache.StoreCondReq_accesses::total           14                       # number of StoreCondReq accesses(hits+misses)
system.cpu.dcache.power_state.pwrStateResidencyTicks::UNDEFINED 165496781000                       # Cumulative time (in ticks) in various power states
system.cpu.dcache.tags.tagsinuse           255.880054                       # Cycle average of tags in use
system.cpu.dcache.tags.total_refs            48423381                       # Total number of references to valid blocks.
system.cpu.dcache.tags.sampled_refs            371960                       # Sample count of references to valid blocks.
system.cpu.dcache.tags.avg_refs            130.184377                       # Average number of references to valid blocks.
system.cpu.dcache.tags.warmup_cycle            255000                       # Cycle when the warmup percentage was hit.
system.cpu.dcache.tags.occ_blocks::.cpu.data   255.880054                       # Average occupied blocks per requestor
system.cpu.dcache.tags.occ_percent::.cpu.data     0.999531                       # Average percentage of cache occupancy
system.cpu.dcache.tags.occ_percent::total     0.999531                       # Average percentage of cache occupancy
system.cpu.dcache.tags.occ_task_id_blocks::1024          256                       # Occupied blocks per task id
system.cpu.dcache.tags.age_task_id_blocks_1024::0           23                       # Occupied blocks per task id
system.cpu.dcache.tags.age_task_id_blocks_1024::1          201                       # Occupied blocks per task id
system.cpu.dcache.tags.age_task_id_blocks_1024::2           30                       # Occupied blocks per task id
system.cpu.dcache.tags.age_task_id_blocks_1024::4            2                       # Occupied blocks per task id
system.cpu.dcache.tags.occ_task_id_percent::1024            1                       # Percentage of cache occupancy per task id
system.cpu.dcache.tags.tag_accesses          97962498                       # Number of tag accesses
system.cpu.dcache.tags.data_accesses         97962498                       # Number of data accesses
system.cpu.dcache.tags.power_state.pwrStateResidencyTicks::UNDEFINED 165496781000                       # Cumulative time (in ticks) in various power states
system.cpu.dtb.instHits                             0                       # ITB inst hits
system.cpu.dtb.instMisses                           0                       # ITB inst misses
system.cpu.dtb.readHits                             0                       # DTB read hits
system.cpu.dtb.readMisses                           0                       # DTB read misses
system.cpu.dtb.writeHits                            0                       # DTB write hits
system.cpu.dtb.writeMisses                          0                       # DTB write misses
system.cpu.dtb.inserts                              0                       # Number of times an entry is inserted into the TLB
system.cpu.dtb.flushTlb                             0                       # Number of times complete TLB was flushed
system.cpu.dtb.flushTlbMva                          0                       # Number of times TLB was flushed by MVA
system.cpu.dtb.flushTlbMvaAsid                      0                       # Number of times TLB was flushed by MVA & ASID
system.cpu.dtb.flushTlbAsid                         0                       # Number of times TLB was flushed by ASID
system.cpu.dtb.flushedEntries                       0                       # Number of entries that have been flushed from TLB
system.cpu.dtb.alignFaults                          0                       # Number of TLB faults due to alignment restrictions
system.cpu.dtb.prefetchFaults                       0                       # Number of TLB faults due to prefetch
system.cpu.dtb.domainFaults                         0                       # Number of TLB faults due to domain restrictions
system.cpu.dtb.permsFaults                          0                       # Number of TLB faults due to permissions restrictions
system.cpu.dtb.readAccesses                         0                       # DTB read accesses
system.cpu.dtb.writeAccesses                        0                       # DTB write accesses
system.cpu.dtb.instAccesses                         0                       # ITB inst accesses
system.cpu.dtb.hits                                 0                       # Total TLB (inst and data) hits
system.cpu.dtb.misses                               0                       # Total TLB (inst and data) misses
system.cpu.dtb.accesses                             0                       # Total TLB (inst and data) accesses
system.cpu.dtb.stage2_mmu.stage2_tlb.instHits            0                       # ITB inst hits
system.cpu.dtb.stage2_mmu.stage2_tlb.instMisses            0                       # ITB inst misses
system.cpu.dtb.stage2_mmu.stage2_tlb.readHits            0                       # DTB read hits
system.cpu.dtb.stage2_mmu.stage2_tlb.readMisses            0                       # DTB read misses
system.cpu.dtb.stage2_mmu.stage2_tlb.writeHits            0                       # DTB write hits
system.cpu.dtb.stage2_mmu.stage2_tlb.writeMisses            0                       # DTB write misses
system.cpu.dtb.stage2_mmu.stage2_tlb.inserts            0                       # Number of times an entry is inserted into the TLB
system.cpu.dtb.stage2_mmu.stage2_tlb.flushTlb            0                       # Number of times complete TLB was flushed
system.cpu.dtb.stage2_mmu.stage2_tlb.flushTlbMva            0                       # Number of times TLB was flushed by MVA
system.cpu.dtb.stage2_mmu.stage2_tlb.flushTlbMvaAsid            0                       # Number of times TLB was flushed by MVA & ASID
system.cpu.dtb.stage2_mmu.stage2_tlb.flushTlbAsid            0                       # Number of times TLB was flushed by ASID
system.cpu.dtb.stage2_mmu.stage2_tlb.flushedEntries            0                       # Number of entries that have been flushed from TLB
system.cpu.dtb.stage2_mmu.stage2_tlb.alignFaults            0                       # Number of TLB faults due to alignment restrictions
system.cpu.dtb.stage2_mmu.stage2_tlb.prefetchFaults            0                       # Number of TLB faults due to prefetch
system.cpu.dtb.stage2_mmu.stage2_tlb.domainFaults            0                       # Number of TLB faults due to domain restrictions
system.cpu.dtb.stage2_mmu.stage2_tlb.permsFaults            0                       # Number of TLB faults due to permissions restrictions
system.cpu.dtb.stage2_mmu.stage2_tlb.readAccesses            0                       # DTB read accesses
system.cpu.dtb.stage2_mmu.stage2_tlb.writeAccesses            0                       # DTB write accesses
system.cpu.dtb.stage2_mmu.stage2_tlb.instAccesses            0                       # ITB inst accesses
system.cpu.dtb.stage2_mmu.stage2_tlb.hits            0                       # Total TLB (inst and data) hits
system.cpu.dtb.stage2_mmu.stage2_tlb.misses            0                       # Total TLB (inst and data) misses
system.cpu.dtb.stage2_mmu.stage2_tlb.accesses            0                       # Total TLB (inst and data) accesses
system.cpu.dtb.stage2_mmu.stage2_tlb.walker.walks            0                       # Table walker walks requested
system.cpu.dtb.stage2_mmu.stage2_tlb.walker.requestOrigin_Requested::Data            0                       # Table walker requests started/completed, data/inst
system.cpu.dtb.stage2_mmu.stage2_tlb.walker.requestOrigin_Requested::Inst            0                       # Table walker requests started/completed, data/inst
system.cpu.dtb.stage2_mmu.stage2_tlb.walker.requestOrigin_Requested::total            0                       # Table walker requests started/completed, data/inst
system.cpu.dtb.stage2_mmu.stage2_tlb.walker.requestOrigin_Completed::Data            0                       # Table walker requests started/completed, data/inst
system.cpu.dtb.stage2_mmu.stage2_tlb.walker.requestOrigin_Completed::Inst            0                       # Table walker requests started/completed, data/inst
system.cpu.dtb.stage2_mmu.stage2_tlb.walker.requestOrigin_Completed::total            0                       # Table walker requests started/completed, data/inst
system.cpu.dtb.stage2_mmu.stage2_tlb.walker.requestOrigin::total            0                       # Table walker requests started/completed, data/inst
system.cpu.dtb.stage2_mmu.stage2_tlb.walker.power_state.pwrStateResidencyTicks::UNDEFINED 165496781000                       # Cumulative time (in ticks) in various power states
system.cpu.dtb.walker.walks                         0                       # Table walker walks requested
system.cpu.dtb.walker.requestOrigin_Requested::Data            0                       # Table walker requests started/completed, data/inst
system.cpu.dtb.walker.requestOrigin_Requested::Inst            0                       # Table walker requests started/completed, data/inst
system.cpu.dtb.walker.requestOrigin_Requested::total            0                       # Table walker requests started/completed, data/inst
system.cpu.dtb.walker.requestOrigin_Completed::Data            0                       # Table walker requests started/completed, data/inst
system.cpu.dtb.walker.requestOrigin_Completed::Inst            0                       # Table walker requests started/completed, data/inst
system.cpu.dtb.walker.requestOrigin_Completed::total            0                       # Table walker requests started/completed, data/inst
system.cpu.dtb.walker.requestOrigin::total            0                       # Table walker requests started/completed, data/inst
system.cpu.dtb.walker.power_state.pwrStateResidencyTicks::UNDEFINED 165496781000                       # Cumulative time (in ticks) in various power states
system.cpu.fetch2.intInstructions            49675006                       # Number of integer instructions successfully decoded
system.cpu.fetch2.fpInstructions                    0                       # Number of floating point instructions successfully decoded
system.cpu.fetch2.vecInstructions                   0                       # Number of SIMD instructions successfully decoded
system.cpu.fetch2.loadInstructions           37097139                       # Number of memory load instructions successfully decoded
system.cpu.fetch2.storeInstructions          13161219                       # Number of memory store instructions successfully decoded
system.cpu.fetch2.amoInstructions                   0                       # Number of memory atomic instructions successfully decoded
system.cpu.icache.demand_hits::.cpu.inst      3051933                       # number of demand (read+write) hits
system.cpu.icache.demand_hits::total          3051933                       # number of demand (read+write) hits
system.cpu.icache.overall_hits::.cpu.inst      3051933                       # number of overall hits
system.cpu.icache.overall_hits::total         3051933                       # number of overall hits
system.cpu.icache.demand_misses::.cpu.inst          270                       # number of demand (read+write) misses
system.cpu.icache.demand_misses::total            270                       # number of demand (read+write) misses
system.cpu.icache.overall_misses::.cpu.inst          270                       # number of overall misses
system.cpu.icache.overall_misses::total           270                       # number of overall misses
system.cpu.icache.demand_miss_latency::.cpu.inst     29899000                       # number of demand (read+write) miss cycles
system.cpu.icache.demand_miss_latency::total     29899000                       # number of demand (read+write) miss cycles
system.cpu.icache.overall_miss_latency::.cpu.inst     29899000                       # number of overall miss cycles
system.cpu.icache.overall_miss_latency::total     29899000                       # number of overall miss cycles
system.cpu.icache.demand_accesses::.cpu.inst      3052203                       # number of demand (read+write) accesses
system.cpu.icache.demand_accesses::total      3052203                       # number of demand (read+write) accesses
system.cpu.icache.overall_accesses::.cpu.inst      3052203                       # number of overall (read+write) accesses
system.cpu.icache.overall_accesses::total      3052203                       # number of overall (read+write) accesses
system.cpu.icache.demand_miss_rate::.cpu.inst     0.000088                       # miss rate for demand accesses
system.cpu.icache.demand_miss_rate::total     0.000088                       # miss rate for demand accesses
system.cpu.icache.overall_miss_rate::.cpu.inst     0.000088                       # miss rate for overall accesses
system.cpu.icache.overall_miss_rate::total     0.000088                       # miss rate for overall accesses
system.cpu.icache.demand_avg_miss_latency::.cpu.inst 110737.037037                       # average overall miss latency
system.cpu.icache.demand_avg_miss_latency::total 110737.037037                       # average overall miss latency
system.cpu.icache.overall_avg_miss_latency::.cpu.inst 110737.037037                       # average overall miss latency
system.cpu.icache.overall_avg_miss_latency::total 110737.037037                       # average overall miss latency
system.cpu.icache.blocked_cycles::no_mshrs            0                       # number of cycles access was blocked
system.cpu.icache.blocked_cycles::no_targets            0                       # number of cycles access was blocked
system.cpu.icache.blocked::no_mshrs                 0                       # number of cycles access was blocked
system.cpu.icache.blocked::no_targets               0                       # number of cycles access was blocked
system.cpu.icache.avg_blocked_cycles::no_mshrs          nan                       # average number of cycles each access was blocked
system.cpu.icache.avg_blocked_cycles::no_targets          nan                       # average number of cycles each access was blocked
system.cpu.icache.writebacks::.writebacks          103                       # number of writebacks
system.cpu.icache.writebacks::total               103                       # number of writebacks
system.cpu.icache.demand_mshr_misses::.cpu.inst          270                       # number of demand (read+write) MSHR misses
system.cpu.icache.demand_mshr_misses::total          270                       # number of demand (read+write) MSHR misses
system.cpu.icache.overall_mshr_misses::.cpu.inst          270                       # number of overall MSHR misses
system.cpu.icache.overall_mshr_misses::total          270                       # number of overall MSHR misses
system.cpu.icache.demand_mshr_miss_latency::.cpu.inst     29359000                       # number of demand (read+write) MSHR miss cycles
system.cpu.icache.demand_mshr_miss_latency::total     29359000                       # number of demand (read+write) MSHR miss cycles
system.cpu.icache.overall_mshr_miss_latency::.cpu.inst     29359000                       # number of overall MSHR miss cycles
system.cpu.icache.overall_mshr_miss_latency::total     29359000                       # number of overall MSHR miss cycles
system.cpu.icache.demand_mshr_miss_rate::.cpu.inst     0.000088                       # mshr miss rate for demand accesses
system.cpu.icache.demand_mshr_miss_rate::total     0.000088                       # mshr miss rate for demand accesses
system.cpu.icache.overall_mshr_miss_rate::.cpu.inst     0.000088                       # mshr miss rate for overall accesses
system.cpu.icache.overall_mshr_miss_rate::total     0.000088                       # mshr miss rate for overall accesses
system.cpu.icache.demand_avg_mshr_miss_latency::.cpu.inst 108737.037037                       # average overall mshr miss latency
system.cpu.icache.demand_avg_mshr_miss_latency::total 108737.037037                       # average overall mshr miss latency
system.cpu.icache.overall_avg_mshr_miss_latency::.cpu.inst 108737.037037                       # average overall mshr miss latency
system.cpu.icache.overall_avg_mshr_miss_latency::total 108737.037037                       # average overall mshr miss latency
system.cpu.icache.replacements                    103                       # number of replacements
system.cpu.icache.ReadReq_hits::.cpu.inst      3051933                       # number of ReadReq hits
system.cpu.icache.ReadReq_hits::total         3051933                       # number of ReadReq hits
system.cpu.icache.ReadReq_misses::.cpu.inst          270                       # number of ReadReq misses
system.cpu.icache.ReadReq_misses::total           270                       # number of ReadReq misses
system.cpu.icache.ReadReq_miss_latency::.cpu.inst     29899000                       # number of ReadReq miss cycles
system.cpu.icache.ReadReq_miss_latency::total     29899000                       # number of ReadReq miss cycles
system.cpu.icache.ReadReq_accesses::.cpu.inst      3052203                       # number of ReadReq accesses(hits+misses)
system.cpu.icache.ReadReq_accesses::total      3052203                       # number of ReadReq accesses(hits+misses)
system.cpu.icache.ReadReq_miss_rate::.cpu.inst     0.000088                       # miss rate for ReadReq accesses
system.cpu.icache.ReadReq_miss_rate::total     0.000088                       # miss rate for ReadReq accesses
system.cpu.icache.ReadReq_avg_miss_latency::.cpu.inst 110737.037037                       # average ReadReq miss latency
system.cpu.icache.ReadReq_avg_miss_latency::total 110737.037037                       # average ReadReq miss latency
system.cpu.icache.ReadReq_mshr_misses::.cpu.inst          270                       # number of ReadReq MSHR misses
system.cpu.icache.ReadReq_mshr_misses::total          270                       # number of ReadReq MSHR misses
system.cpu.icache.ReadReq_mshr_miss_latency::.cpu.inst     29359000                       # number of ReadReq MSHR miss cycles
system.cpu.icache.ReadReq_mshr_miss_latency::total     29359000                       # number of ReadReq MSHR miss cycles
system.cpu.icache.ReadReq_mshr_miss_rate::.cpu.inst     0.000088                       # mshr miss rate for ReadReq accesses
system.cpu.icache.ReadReq_mshr_miss_rate::total     0.000088                       # mshr miss rate for ReadReq accesses
system.cpu.icache.ReadReq_avg_mshr_miss_latency::.cpu.inst 108737.037037                       # average ReadReq mshr miss latency
system.cpu.icache.ReadReq_avg_mshr_miss_latency::total 108737.037037                       # average ReadReq mshr miss latency
system.cpu.icache.power_state.pwrStateResidencyTicks::UNDEFINED 165496781000                       # Cumulative time (in ticks) in various power states
system.cpu.icache.tags.tagsinuse           166.979618                       # Cycle average of tags in use
system.cpu.icache.tags.total_refs             3052203                       # Total number of references to valid blocks.
system.cpu.icache.tags.sampled_refs               270                       # Sample count of references to valid blocks.
system.cpu.icache.tags.avg_refs          11304.455556                       # Average number of references to valid blocks.
system.cpu.icache.tags.warmup_cycle            123000                       # Cycle when the warmup percentage was hit.
system.cpu.icache.tags.occ_blocks::.cpu.inst   166.979618                       # Average occupied blocks per requestor
system.cpu.icache.tags.occ_percent::.cpu.inst     0.652264                       # Average percentage of cache occupancy
system.cpu.icache.tags.occ_percent::total     0.652264                       # Average percentage of cache occupancy
system.cpu.icache.tags.occ_task_id_blocks::1024          167                       # Occupied blocks per task id
system.cpu.icache.tags.age_task_id_blocks_1024::4          167                       # Occupied blocks per task id
system.cpu.icache.tags.occ_task_id_percent::1024     0.652344                       # Percentage of cache occupancy per task id
system.cpu.icache.tags.tag_accesses           6104676                       # Number of tag accesses
system.cpu.icache.tags.data_accesses          6104676                       # Number of data accesses
system.cpu.icache.tags.power_state.pwrStateResidencyTicks::UNDEFINED 165496781000                       # Cumulative time (in ticks) in various power states
system.cpu.itb.instHits                             0                       # ITB inst hits
system.cpu.itb.instMisses                           0                       # ITB inst misses
system.cpu.itb.readHits                             0                       # DTB read hits
system.cpu.itb.readMisses                           0                       # DTB read misses
system.cpu.itb.writeHits                            0                       # DTB write hits
system.cpu.itb.writeMisses                          0                       # DTB write misses
system.cpu.itb.inserts                              0                       # Number of times an entry is inserted into the TLB
system.cpu.itb.flushTlb                             0                       # Number of times complete TLB was flushed
system.cpu.itb.flushTlbMva                          0                       # Number of times TLB was flushed by MVA
system.cpu.itb.flushTlbMvaAsid                      0                       # Number of times TLB was flushed by MVA & ASID
system.cpu.itb.flushTlbAsid                         0                       # Number of times TLB was flushed by ASID
system.cpu.itb.flushedEntries                       0                       # Number of entries that have been flushed from TLB
system.cpu.itb.alignFaults                          0                       # Number of TLB faults due to alignment restrictions
system.cpu.itb.prefetchFaults                       0                       # Number of TLB faults due to prefetch
system.cpu.itb.domainFaults                         0                       # Number of TLB faults due to domain restrictions
system.cpu.itb.permsFaults                          0                       # Number of TLB faults due to permissions restrictions
system.cpu.itb.readAccesses                         0                       # DTB read accesses
system.cpu.itb.writeAccesses                        0                       # DTB write accesses
system.cpu.itb.instAccesses                         0                       # ITB inst accesses
system.cpu.itb.hits                                 0                       # Total TLB (inst and data) hits
system.cpu.itb.misses                               0                       # Total TLB (inst and data) misses
system.cpu.itb.accesses                             0                       # Total TLB (inst and data) accesses
system.cpu.itb.stage2_mmu.stage2_tlb.instHits            0                       # ITB inst hits
system.cpu.itb.stage2_mmu.stage2_tlb.instMisses            0                       # ITB inst misses
system.cpu.itb.stage2_mmu.stage2_tlb.readHits            0                       # DTB read hits
system.cpu.itb.stage2_mmu.stage2_tlb.readMisses            0                       # DTB read misses
system.cpu.itb.stage2_mmu.stage2_tlb.writeHits            0                       # DTB write hits
system.cpu.itb.stage2_mmu.stage2_tlb.writeMisses            0                       # DTB write misses
system.cpu.itb.stage2_mmu.stage2_tlb.inserts            0                       # Number of times an entry is inserted into the TLB
system.cpu.itb.stage2_mmu.stage2_tlb.flushTlb            0                       # Number of times complete TLB was flushed
system.cpu.itb.stage2_mmu.stage2_tlb.flushTlbMva            0                       # Number of times TLB was flushed by MVA
system.cpu.itb.stage2_mmu.stage2_tlb.flushTlbMvaAsid            0                       # Number of times TLB was flushed by MVA & ASID
system.cpu.itb.stage2_mmu.stage2_tlb.flushTlbAsid            0                       # Number of times TLB was flushed by ASID
system.cpu.itb.stage2_mmu.stage2_tlb.flushedEntries            0                       # Number of entries that have been flushed from TLB
system.cpu.itb.stage2_mmu.stage2_tlb.alignFaults            0                       # Number of TLB faults due to alignment restrictions
system.cpu.itb.stage2_mmu.stage2_tlb.prefetchFaults            0                       # Number of TLB faults due to prefetch
system.cpu.itb.stage2_mmu.stage2_tlb.domainFaults            0                       # Number of TLB faults due to domain restrictions
system.cpu.itb.stage2_mmu.stage2_tlb.permsFaults            0                       # Number of TLB faults due to permissions restrictions
system.cpu.itb.stage2_mmu.stage2_tlb.readAccesses            0                       # DTB read accesses
system.cpu.itb.stage2_mmu.stage2_tlb.writeAccesses            0                       # DTB write accesses
system.cpu.itb.stage2_mmu.stage2_tlb.instAccesses            0                       # ITB inst accesses
system.cpu.itb.stage2_mmu.stage2_tlb.hits            0                       # Total TLB (inst and data) hits
system.cpu.itb.stage2_mmu.stage2_tlb.misses            0                       # Total TLB (inst and data) misses
system.cpu.itb.stage2_mmu.stage2_tlb.accesses            0                       # Total TLB (inst and data) accesses
system.cpu.itb.stage2_mmu.stage2_tlb.walker.walks            0                       # Table walker walks requested
system.cpu.itb.stage2_mmu.stage2_tlb.walker.requestOrigin_Requested::Data            0                       # Table walker requests started/completed, data/inst
system.cpu.itb.stage2_mmu.stage2_tlb.walker.requestOrigin_Requested::Inst            0                       # Table walker requests started/completed, data/inst
system.cpu.itb.stage2_mmu.stage2_tlb.walker.requestOrigin_Requested::total            0                       # Table walker requests started/completed, data/inst
system.cpu.itb.stage2_mmu.stage2_tlb.walker.requestOrigin_Completed::Data            0                       # Table walker requests started/completed, data/inst
system.cpu.itb.stage2_mmu.stage2_tlb.walker.requestOrigin_Completed::Inst            0                       # Table walker requests started/completed, data/inst
system.cpu.itb.stage2_mmu.stage2_tlb.walker.requestOrigin_Completed::total            0                       # Table walker requests started/completed, data/inst
system.cpu.itb.stage2_mmu.stage2_tlb.walker.requestOrigin::total            0                       # Table walker requests started/completed, data/inst
system.cpu.itb.stage2_mmu.stage2_tlb.walker.power_state.pwrStateResidencyTicks::UNDEFINED 165496781000                       # Cumulative time (in ticks) in various power states
system.cpu.itb.walker.walks                         0                       # Table walker walks requested
system.cpu.itb.walker.requestOrigin_Requested::Data            0                       # Table walker requests started/completed, data/inst
system.cpu.itb.walker.requestOrigin_Requested::Inst            0                       # Table walker requests started/completed, data/inst
system.cpu.itb.walker.requestOrigin_Requested::total            0                       # Table walker requests started/completed, data/inst
system.cpu.itb.walker.requestOrigin_Completed::Data            0                       # Table walker requests started/completed, data/inst
system.cpu.itb.walker.requestOrigin_Completed::Inst            0                       # Table walker requests started/completed, data/inst
system.cpu.itb.walker.requestOrigin_Completed::total            0                       # Table walker requests started/completed, data/inst
system.cpu.itb.walker.requestOrigin::total            0                       # Table walker requests started/completed, data/inst
system.cpu.itb.walker.power_state.pwrStateResidencyTicks::UNDEFINED 165496781000                       # Cumulative time (in ticks) in various power states
system.cpu.power_state.pwrStateResidencyTicks::ON 165496781000                       # Cumulative time (in ticks) in various power states
system.cpu.thread17522.numInsts             100000000                       # Number of Instructions committed
system.cpu.thread17522.numOps               100003630                       # Number of Ops committed
system.cpu.thread17522.numMemRefs                   0                       # Number of Memory References
system.cpu_clk_domain.clock                      1000                       # Clock period in ticks
system.cpu_voltage_domain.voltage                   1                       # Voltage in Volts
system.l2.demand_hits::.cpu.inst                   33                       # number of demand (read+write) hits
system.l2.demand_hits::.cpu.data                   21                       # number of demand (read+write) hits
system.l2.demand_hits::total                       54                       # number of demand (read+write) hits
system.l2.overall_hits::.cpu.inst                  33                       # number of overall hits
system.l2.overall_hits::.cpu.data                  21                       # number of overall hits
system.l2.overall_hits::total                      54                       # number of overall hits
system.l2.demand_misses::.cpu.inst                237                       # number of demand (read+write) misses
system.l2.demand_misses::.cpu.data             371939                       # number of demand (read+write) misses
system.l2.demand_misses::total                 372176                       # number of demand (read+write) misses
system.l2.overall_misses::.cpu.inst               237                       # number of overall misses
system.l2.overall_misses::.cpu.data            371939                       # number of overall misses
system.l2.overall_misses::total                372176                       # number of overall misses
system.l2.demand_miss_latency::.cpu.inst     27638000                       # number of demand (read+write) miss cycles
system.l2.demand_miss_latency::.cpu.data  44648014000                       # number of demand (read+write) miss cycles
system.l2.demand_miss_latency::total      44675652000                       # number of demand (read+write) miss cycles
system.l2.overall_miss_latency::.cpu.inst     27638000                       # number of overall miss cycles
system.l2.overall_miss_latency::.cpu.data  44648014000                       # number of overall miss cycles
system.l2.overall_miss_latency::total     44675652000                       # number of overall miss cycles
system.l2.demand_accesses::.cpu.inst              270                       # number of demand (read+write) accesses
system.l2.demand_accesses::.cpu.data           371960                       # number of demand (read+write) accesses
system.l2.demand_accesses::total               372230                       # number of demand (read+write) accesses
system.l2.overall_accesses::.cpu.inst             270                       # number of overall (read+write) accesses
system.l2.overall_accesses::.cpu.data          371960                       # number of overall (read+write) accesses
system.l2.overall_accesses::total              372230                       # number of overall (read+write) accesses
system.l2.demand_miss_rate::.cpu.inst        0.877778                       # miss rate for demand accesses
system.l2.demand_miss_rate::.cpu.data        0.999944                       # miss rate for demand accesses
system.l2.demand_miss_rate::total            0.999855                       # miss rate for demand accesses
system.l2.overall_miss_rate::.cpu.inst       0.877778                       # miss rate for overall accesses
system.l2.overall_miss_rate::.cpu.data       0.999944                       # miss rate for overall accesses
system.l2.overall_miss_rate::total           0.999855                       # miss rate for overall accesses
system.l2.demand_avg_miss_latency::.cpu.inst 116616.033755                       # average overall miss latency
system.l2.demand_avg_miss_latency::.cpu.data 120041.227190                       # average overall miss latency
system.l2.demand_avg_miss_latency::total 120039.046043                       # average overall miss latency
system.l2.overall_avg_miss_latency::.cpu.inst 116616.033755                       # average overall miss latency
system.l2.overall_avg_miss_latency::.cpu.data 120041.227190                       # average overall miss latency
system.l2.overall_avg_miss_latency::total 120039.046043                       # average overall miss latency
system.l2.blocked_cycles::no_mshrs                  0                       # number of cycles access was blocked
system.l2.blocked_cycles::no_targets                0                       # number of cycles access was blocked
system.l2.blocked::no_mshrs                         0                       # number of cycles access was blocked
system.l2.blocked::no_targets                       0                       # number of cycles access was blocked
system.l2.avg_blocked_cycles::no_mshrs            nan                       # average number of cycles each access was blocked
system.l2.avg_blocked_cycles::no_targets          nan                       # average number of cycles each access was blocked
system.l2.writebacks::.writebacks              369848                       # number of writebacks
system.l2.writebacks::total                    369848                       # number of writebacks
system.l2.demand_mshr_hits::.cpu.data               5                       # number of demand (read+write) MSHR hits
system.l2.demand_mshr_hits::total                   5                       # number of demand (read+write) MSHR hits
system.l2.overall_mshr_hits::.cpu.data              5                       # number of overall MSHR hits
system.l2.overall_mshr_hits::total                  5                       # number of overall MSHR hits
system.l2.demand_mshr_misses::.cpu.inst           237                       # number of demand (read+write) MSHR misses
system.l2.demand_mshr_misses::.cpu.data        371934                       # number of demand (read+write) MSHR misses
system.l2.demand_mshr_misses::total            372171                       # number of demand (read+write) MSHR misses
system.l2.overall_mshr_misses::.cpu.inst          237                       # number of overall MSHR misses
system.l2.overall_mshr_misses::.cpu.data       371934                       # number of overall MSHR misses
system.l2.overall_mshr_misses::total           372171                       # number of overall MSHR misses
system.l2.demand_mshr_miss_latency::.cpu.inst     22898000                       # number of demand (read+write) MSHR miss cycles
system.l2.demand_mshr_miss_latency::.cpu.data  37208588000                       # number of demand (read+write) MSHR miss cycles
system.l2.demand_mshr_miss_latency::total  37231486000                       # number of demand (read+write) MSHR miss cycles
system.l2.overall_mshr_miss_latency::.cpu.inst     22898000                       # number of overall MSHR miss cycles
system.l2.overall_mshr_miss_latency::.cpu.data  37208588000                       # number of overall MSHR miss cycles
system.l2.overall_mshr_miss_latency::total  37231486000                       # number of overall MSHR miss cycles
system.l2.demand_mshr_miss_rate::.cpu.inst     0.877778                       # mshr miss rate for demand accesses
system.l2.demand_mshr_miss_rate::.cpu.data     0.999930                       # mshr miss rate for demand accesses
system.l2.demand_mshr_miss_rate::total       0.999841                       # mshr miss rate for demand accesses
system.l2.overall_mshr_miss_rate::.cpu.inst     0.877778                       # mshr miss rate for overall accesses
system.l2.overall_mshr_miss_rate::.cpu.data     0.999930                       # mshr miss rate for overall accesses
system.l2.overall_mshr_miss_rate::total      0.999841                       # mshr miss rate for overall accesses
system.l2.demand_avg_mshr_miss_latency::.cpu.inst 96616.033755                       # average overall mshr miss latency
system.l2.demand_avg_mshr_miss_latency::.cpu.data 100040.835202                       # average overall mshr miss latency
system.l2.demand_avg_mshr_miss_latency::total 100038.654275                       # average overall mshr miss latency
system.l2.overall_avg_mshr_miss_latency::.cpu.inst 96616.033755                       # average overall mshr miss latency
system.l2.overall_avg_mshr_miss_latency::.cpu.data 100040.835202                       # average overall mshr miss latency
system.l2.overall_avg_mshr_miss_latency::total 100038.654275                       # average overall mshr miss latency
system.l2.replacements                         370123                       # number of replacements
system.l2.WritebackDirty_hits::.writebacks       371642                       # number of WritebackDirty hits
system.l2.WritebackDirty_hits::total           371642                       # number of WritebackDirty hits
system.l2.WritebackDirty_accesses::.writebacks       371642                       # number of WritebackDirty accesses(hits+misses)
system.l2.WritebackDirty_accesses::total       371642                       # number of WritebackDirty accesses(hits+misses)
system.l2.WritebackClean_hits::.writebacks           86                       # number of WritebackClean hits
system.l2.WritebackClean_hits::total               86                       # number of WritebackClean hits
system.l2.WritebackClean_accesses::.writebacks           86                       # number of WritebackClean accesses(hits+misses)
system.l2.WritebackClean_accesses::total           86                       # number of WritebackClean accesses(hits+misses)
system.l2.ReadExReq_misses::.cpu.data          371886                       # number of ReadExReq misses
system.l2.ReadExReq_misses::total              371886                       # number of ReadExReq misses
system.l2.ReadExReq_miss_latency::.cpu.data  44641664000                       # number of ReadExReq miss cycles
system.l2.ReadExReq_miss_latency::total   44641664000                       # number of ReadExReq miss cycles
system.l2.ReadExReq_accesses::.cpu.data        371886                       # number of ReadExReq accesses(hits+misses)
system.l2.ReadExReq_accesses::total            371886                       # number of ReadExReq accesses(hits+misses)
system.l2.ReadExReq_miss_rate::.cpu.data            1                       # miss rate for ReadExReq accesses
system.l2.ReadExReq_miss_rate::total                1                       # miss rate for ReadExReq accesses
system.l2.ReadExReq_avg_miss_latency::.cpu.data 120041.259956                       # average ReadExReq miss latency
system.l2.ReadExReq_avg_miss_latency::total 120041.259956                       # average ReadExReq miss latency
system.l2.ReadExReq_mshr_misses::.cpu.data       371886                       # number of ReadExReq MSHR misses
system.l2.ReadExReq_mshr_misses::total         371886                       # number of ReadExReq MSHR misses
system.l2.ReadExReq_mshr_miss_latency::.cpu.data  37203944000                       # number of ReadExReq MSHR miss cycles
system.l2.ReadExReq_mshr_miss_latency::total  37203944000                       # number of ReadExReq MSHR miss cycles
system.l2.ReadExReq_mshr_miss_rate::.cpu.data            1                       # mshr miss rate for ReadExReq accesses
system.l2.ReadExReq_mshr_miss_rate::total            1                       # mshr miss rate for ReadExReq accesses
system.l2.ReadExReq_avg_mshr_miss_latency::.cpu.data 100041.259956                       # average ReadExReq mshr miss latency
system.l2.ReadExReq_avg_mshr_miss_latency::total 100041.259956                       # average ReadExReq mshr miss latency
system.l2.ReadCleanReq_hits::.cpu.inst             33                       # number of ReadCleanReq hits
system.l2.ReadCleanReq_hits::total                 33                       # number of ReadCleanReq hits
system.l2.ReadCleanReq_misses::.cpu.inst          237                       # number of ReadCleanReq misses
system.l2.ReadCleanReq_misses::total              237                       # number of ReadCleanReq misses
system.l2.ReadCleanReq_miss_latency::.cpu.inst     27638000                       # number of ReadCleanReq miss cycles
system.l2.ReadCleanReq_miss_latency::total     27638000                       # number of ReadCleanReq miss cycles
system.l2.ReadCleanReq_accesses::.cpu.inst          270                       # number of ReadCleanReq accesses(hits+misses)
system.l2.ReadCleanReq_accesses::total            270                       # number of ReadCleanReq accesses(hits+misses)
system.l2.ReadCleanReq_miss_rate::.cpu.inst     0.877778                       # miss rate for ReadCleanReq accesses
system.l2.ReadCleanReq_miss_rate::total      0.877778                       # miss rate for ReadCleanReq accesses
system.l2.ReadCleanReq_avg_miss_latency::.cpu.inst 116616.033755                       # average ReadCleanReq miss latency
system.l2.ReadCleanReq_avg_miss_latency::total 116616.033755                       # average ReadCleanReq miss latency
system.l2.ReadCleanReq_mshr_misses::.cpu.inst          237                       # number of ReadCleanReq MSHR misses
system.l2.ReadCleanReq_mshr_misses::total          237                       # number of ReadCleanReq MSHR misses
system.l2.ReadCleanReq_mshr_miss_latency::.cpu.inst     22898000                       # number of ReadCleanReq MSHR miss cycles
system.l2.ReadCleanReq_mshr_miss_latency::total     22898000                       # number of ReadCleanReq MSHR miss cycles
system.l2.ReadCleanReq_mshr_miss_rate::.cpu.inst     0.877778                       # mshr miss rate for ReadCleanReq accesses
system.l2.ReadCleanReq_mshr_miss_rate::total     0.877778                       # mshr miss rate for ReadCleanReq accesses
system.l2.ReadCleanReq_avg_mshr_miss_latency::.cpu.inst 96616.033755                       # average ReadCleanReq mshr miss latency
system.l2.ReadCleanReq_avg_mshr_miss_latency::total 96616.033755                       # average ReadCleanReq mshr miss latency
system.l2.ReadSharedReq_hits::.cpu.data            21                       # number of ReadSharedReq hits
system.l2.ReadSharedReq_hits::total                21                       # number of ReadSharedReq hits
system.l2.ReadSharedReq_misses::.cpu.data           53                       # number of ReadSharedReq misses
system.l2.ReadSharedReq_misses::total              53                       # number of ReadSharedReq misses
system.l2.ReadSharedReq_miss_latency::.cpu.data      6350000                       # number of ReadSharedReq miss cycles
system.l2.ReadSharedReq_miss_latency::total      6350000                       # number of ReadSharedReq miss cycles
system.l2.ReadSharedReq_accesses::.cpu.data           74                       # number of ReadSharedReq accesses(hits+misses)
system.l2.ReadSharedReq_accesses::total            74                       # number of ReadSharedReq accesses(hits+misses)
system.l2.ReadSharedReq_miss_rate::.cpu.data     0.716216                       # miss rate for ReadSharedReq accesses
system.l2.ReadSharedReq_miss_rate::total     0.716216                       # miss rate for ReadSharedReq accesses
system.l2.ReadSharedReq_avg_miss_latency::.cpu.data 119811.320755                       # average ReadSharedReq miss latency
system.l2.ReadSharedReq_avg_miss_latency::total 119811.320755                       # average ReadSharedReq miss latency
system.l2.ReadSharedReq_mshr_hits::.cpu.data            5                       # number of ReadSharedReq MSHR hits
system.l2.ReadSharedReq_mshr_hits::total            5                       # number of ReadSharedReq MSHR hits
system.l2.ReadSharedReq_mshr_misses::.cpu.data           48                       # number of ReadSharedReq MSHR misses
system.l2.ReadSharedReq_mshr_misses::total           48                       # number of ReadSharedReq MSHR misses
system.l2.ReadSharedReq_mshr_miss_latency::.cpu.data      4644000                       # number of ReadSharedReq MSHR miss cycles
system.l2.ReadSharedReq_mshr_miss_latency::total      4644000                       # number of ReadSharedReq MSHR miss cycles
system.l2.ReadSharedReq_mshr_miss_rate::.cpu.data     0.648649                       # mshr miss rate for ReadSharedReq accesses
system.l2.ReadSharedReq_mshr_miss_rate::total     0.648649                       # mshr miss rate for ReadSharedReq accesses
system.l2.ReadSharedReq_avg_mshr_miss_latency::.cpu.data        96750                       # average ReadSharedReq mshr miss latency
system.l2.ReadSharedReq_avg_mshr_miss_latency::total        96750                       # average ReadSharedReq mshr miss latency
system.l2.power_state.pwrStateResidencyTicks::UNDEFINED 165496781000                       # Cumulative time (in ticks) in various power states
system.l2.tags.tagsinuse                  2043.220016                       # Cycle average of tags in use
system.l2.tags.total_refs                      743996                       # Total number of references to valid blocks.
system.l2.tags.sampled_refs                    372171                       # Sample count of references to valid blocks.
system.l2.tags.avg_refs                      1.999070                       # Average number of references to valid blocks.
system.l2.tags.warmup_cycle                    102000                       # Cycle when the warmup percentage was hit.
system.l2.tags.occ_blocks::.cpu.inst         1.151236                       # Average occupied blocks per requestor
system.l2.tags.occ_blocks::.cpu.data      2042.068780                       # Average occupied blocks per requestor
system.l2.tags.occ_percent::.cpu.inst        0.000562                       # Average percentage of cache occupancy
system.l2.tags.occ_percent::.cpu.data        0.997104                       # Average percentage of cache occupancy
system.l2.tags.occ_percent::total            0.997666                       # Average percentage of cache occupancy
system.l2.tags.occ_task_id_blocks::1024          2048                       # Occupied blocks per task id
system.l2.tags.age_task_id_blocks_1024::0           23                       # Occupied blocks per task id
system.l2.tags.age_task_id_blocks_1024::1          202                       # Occupied blocks per task id
system.l2.tags.age_task_id_blocks_1024::2         1823                       # Occupied blocks per task id
system.l2.tags.occ_task_id_percent::1024            1                       # Percentage of cache occupancy per task id
system.l2.tags.tag_accesses                   6324179                       # Number of tag accesses
system.l2.tags.data_accesses                  6324179                       # Number of data accesses
system.l2.tags.power_state.pwrStateResidencyTicks::UNDEFINED 165496781000                       # Cumulative time (in ticks) in various power states
system.mem_ctrls.avgPriority_.writebacks::samples   1479392.00                       # Average QoS priority value for accepted requests
system.mem_ctrls.avgPriority_.cpu.inst::samples       948.00                       # Average QoS priority value for accepted requests
system.mem_ctrls.avgPriority_.cpu.data::samples   1487736.00                       # Average QoS priority value for accepted requests
system.mem_ctrls.priorityMinLatency      0.000000018750                       # per QoS priority minimum request to response latency (s)
system.mem_ctrls.priorityMaxLatency      0.000045208500                       # per QoS priority maximum request to response latency (s)
system.mem_ctrls.numReadWriteTurnArounds        73968                       # Number of turnarounds from READ to WRITE
system.mem_ctrls.numWriteReadTurnArounds        73968                       # Number of turnarounds from WRITE to READ
system.mem_ctrls.numStayReadState             2273079                       # Number of times bus staying in READ state
system.mem_ctrls.numStayWriteState            1405393                       # Number of times bus staying in WRITE state
system.mem_ctrls.readReqs                      372171                       # Number of read requests accepted
system.mem_ctrls.writeReqs                     369848                       # Number of write requests accepted
system.mem_ctrls.readBursts                   1488684                       # Number of controller read bursts, including those serviced by the write queue
system.mem_ctrls.writeBursts                  1479392                       # Number of controller write bursts, including those merged in the write queue
system.mem_ctrls.servicedByWrQ                      0                       # Number of controller read bursts serviced by the write queue
system.mem_ctrls.mergedWrBursts                     0                       # Number of controller write bursts merged with an existing one
system.mem_ctrls.neitherReadNorWriteReqs            0                       # Number of requests that are neither read nor write
system.mem_ctrls.avgRdQLen                       4.00                       # Average read queue length when enqueuing
system.mem_ctrls.avgWrQLen                      26.87                       # Average write queue length when enqueuing
system.mem_ctrls.numRdRetry                         0                       # Number of times read queue was full causing retry
system.mem_ctrls.numWrRetry                         0                       # Number of times write queue was full causing retry
system.mem_ctrls.readPktSize::0                     0                       # Read request sizes (log2)
system.mem_ctrls.readPktSize::1                     0                       # Read request sizes (log2)
system.mem_ctrls.readPktSize::2                     0                       # Read request sizes (log2)
system.mem_ctrls.readPktSize::3                     0                       # Read request sizes (log2)
system.mem_ctrls.readPktSize::4                     0                       # Read request sizes (log2)
system.mem_ctrls.readPktSize::5                     0                       # Read request sizes (log2)
system.mem_ctrls.readPktSize::6               1488684                       # Read request sizes (log2)
system.mem_ctrls.readPktSize::7                     0                       # Read request sizes (log2)
system.mem_ctrls.readPktSize::8                     0                       # Read request sizes (log2)
system.mem_ctrls.writePktSize::0                    0                       # Write request sizes (log2)
system.mem_ctrls.writePktSize::1                    0                       # Write request sizes (log2)
system.mem_ctrls.writePktSize::2                    0                       # Write request sizes (log2)
system.mem_ctrls.writePktSize::3                    0                       # Write request sizes (log2)
system.mem_ctrls.writePktSize::4                    0                       # Write request sizes (log2)
system.mem_ctrls.writePktSize::5                    0                       # Write request sizes (log2)
system.mem_ctrls.writePktSize::6              1479392                       # Write request sizes (log2)
system.mem_ctrls.writePktSize::7                    0                       # Write request sizes (log2)
system.mem_ctrls.writePktSize::8                    0                       # Write request sizes (log2)
system.mem_ctrls.rdQLenPdf::0                  372142                       # What read queue length does an incoming req see
system.mem_ctrls.rdQLenPdf::1                  372142                       # What read queue length does an incoming req see
system.mem_ctrls.rdQLenPdf::2                  372144                       # What read queue length does an incoming req see
system.mem_ctrls.rdQLenPdf::3                  372144                       # What read queue length does an incoming req see
system.mem_ctrls.rdQLenPdf::4                      28                       # What read queue length does an incoming req see
system.mem_ctrls.rdQLenPdf::5                      28                       # What read queue length does an incoming req see
system.mem_ctrls.rdQLenPdf::6                      26                       # What read queue length does an incoming req see
system.mem_ctrls.rdQLenPdf::7                      26                       # What read queue length does an incoming req see
system.mem_ctrls.rdQLenPdf::8                       1                       # What read queue length does an incoming req see
system.mem_ctrls.rdQLenPdf::9                       1                       # What read queue length does an incoming req see
system.mem_ctrls.rdQLenPdf::10                      1                       # What read queue length does an incoming req see
system.mem_ctrls.rdQLenPdf::11                      1                       # What read queue length does an incoming req see
system.mem_ctrls.rdQLenPdf::12                      0                       # What read queue length does an incoming req see
system.mem_ctrls.rdQLenPdf::13                      0                       # What read queue length does an incoming req see
[...]
system.mem_ctrls.dram.bw_write::.writebacks    572102294                       # Write bandwidth from this memory (bytes/s)
system.mem_ctrls.dram.bw_write::total       572102294                       # Write bandwidth from this memory (bytes/s)
system.mem_ctrls.dram.bw_total::.writebacks    572102294                       # Total bandwidth to/from this memory (bytes/s)
system.mem_ctrls.dram.bw_total::.cpu.inst       366605                       # Total bandwidth to/from this memory (bytes/s)
system.mem_ctrls.dram.bw_total::.cpu.data    575329039                       # Total bandwidth to/from this memory (bytes/s)
system.mem_ctrls.dram.bw_total::total      1147797938                       # Total bandwidth to/from this memory (bytes/s)
system.mem_ctrls.dram.readBursts              1488684                       # Number of DRAM read bursts
system.mem_ctrls.dram.writeBursts             1479361                       # Number of DRAM write bursts
system.mem_ctrls.dram.perBankRdBursts::0        93084                       # Per bank write bursts
system.mem_ctrls.dram.perBankRdBursts::1        93012                       # Per bank write bursts
system.mem_ctrls.dram.perBankRdBursts::2        93024                       # Per bank write bursts
system.mem_ctrls.dram.perBankRdBursts::3        92976                       # Per bank write bursts
system.mem_ctrls.dram.perBankRdBursts::4        93024                       # Per bank write bursts
system.mem_ctrls.dram.perBankRdBursts::5        93036                       # Per bank write bursts
system.mem_ctrls.dram.perBankRdBursts::6        93072                       # Per bank write bursts
system.mem_ctrls.dram.perBankRdBursts::7        93088                       # Per bank write bursts
system.mem_ctrls.dram.perBankRdBursts::8        93232                       # Per bank write bursts
system.mem_ctrls.dram.perBankRdBursts::9        93104                       # Per bank write bursts
system.mem_ctrls.dram.perBankRdBursts::10        93000                       # Per bank write bursts
system.mem_ctrls.dram.perBankRdBursts::11        92984                       # Per bank write bursts
system.mem_ctrls.dram.perBankRdBursts::12        93044                       # Per bank write bursts
system.mem_ctrls.dram.perBankRdBursts::13        92988                       # Per bank write bursts
system.mem_ctrls.dram.perBankRdBursts::14        93000                       # Per bank write bursts
system.mem_ctrls.dram.perBankRdBursts::15        93016                       # Per bank write bursts
system.mem_ctrls.dram.perBankWrBursts::0        92424                       # Per bank write bursts
system.mem_ctrls.dram.perBankWrBursts::1        92492                       # Per bank write bursts
system.mem_ctrls.dram.perBankWrBursts::2        92444                       # Per bank write bursts
system.mem_ctrls.dram.perBankWrBursts::3        92440                       # Per bank write bursts
system.mem_ctrls.dram.perBankWrBursts::4        92428                       # Per bank write bursts
system.mem_ctrls.dram.perBankWrBursts::5        92484                       # Per bank write bursts
system.mem_ctrls.dram.perBankWrBursts::6        92544                       # Per bank write bursts
system.mem_ctrls.dram.perBankWrBursts::7        92544                       # Per bank write bursts
system.mem_ctrls.dram.perBankWrBursts::8        92544                       # Per bank write bursts
system.mem_ctrls.dram.perBankWrBursts::9        92521                       # Per bank write bursts
system.mem_ctrls.dram.perBankWrBursts::10        92416                       # Per bank write bursts
system.mem_ctrls.dram.perBankWrBursts::11        92416                       # Per bank write bursts
system.mem_ctrls.dram.perBankWrBursts::12        92416                       # Per bank write bursts
system.mem_ctrls.dram.perBankWrBursts::13        92416                       # Per bank write bursts
system.mem_ctrls.dram.perBankWrBursts::14        92416                       # Per bank write bursts
system.mem_ctrls.dram.perBankWrBursts::15        92416                       # Per bank write bursts
system.mem_ctrls.dram.totQLat             33332343000                       # Total ticks spent queuing
system.mem_ctrls.dram.totBusLat            7443420000                       # Total ticks spent in databus transfers
system.mem_ctrls.dram.totMemAccLat        61245168000                       # Total ticks spent from burst creation until serviced by the DRAM
system.mem_ctrls.dram.avgQLat                22390.48                       # Average queueing delay per DRAM burst
system.mem_ctrls.dram.avgBusLat               5000.00                       # Average bus latency per DRAM burst
system.mem_ctrls.dram.avgMemAccLat           41140.48                       # Average memory access latency per DRAM burst
system.mem_ctrls.dram.readRowHits             1338068                       # Number of row buffer hits during reads
system.mem_ctrls.dram.writeRowHits            1330766                       # Number of row buffer hits during writes
system.mem_ctrls.dram.readRowHitRate            89.88                       # Row buffer hit rate for reads
system.mem_ctrls.dram.writeRowHitRate           89.96                       # Row buffer hit rate for writes
system.mem_ctrls.dram.bytesPerActivate::samples       299211                       # Bytes accessed per row activation
system.mem_ctrls.dram.bytesPerActivate::mean   634.852596                       # Bytes accessed per row activation
system.mem_ctrls.dram.bytesPerActivate::gmean   508.822050                       # Bytes accessed per row activation
system.mem_ctrls.dram.bytesPerActivate::stdev   373.834837                       # Bytes accessed per row activation
system.mem_ctrls.dram.bytesPerActivate::0-127         3302      1.10%      1.10% # Bytes accessed per row activation
system.mem_ctrls.dram.bytesPerActivate::128-255         3302      1.10%      2.21% # Bytes accessed per row activation
system.mem_ctrls.dram.bytesPerActivate::256-383       132805     44.39%     46.59% # Bytes accessed per row activation
system.mem_ctrls.dram.bytesPerActivate::384-511         2312      0.77%     47.36% # Bytes accessed per row activation
system.mem_ctrls.dram.bytesPerActivate::512-639         9689      3.24%     50.60% # Bytes accessed per row activation
system.mem_ctrls.dram.bytesPerActivate::640-767         2312      0.77%     51.38% # Bytes accessed per row activation
system.mem_ctrls.dram.bytesPerActivate::768-895         6990      2.34%     53.71% # Bytes accessed per row activation
system.mem_ctrls.dram.bytesPerActivate::896-1023         3633      1.21%     54.93% # Bytes accessed per row activation
system.mem_ctrls.dram.bytesPerActivate::1024-1151       134866     45.07%    100.00% # Bytes accessed per row activation
system.mem_ctrls.dram.bytesPerActivate::total       299211                       # Bytes accessed per row activation
system.mem_ctrls.dram.bytesRead              95275776                       # Total number of bytes read from DRAM
system.mem_ctrls.dram.bytesWritten           94679104                       # Total number of bytes written to DRAM
system.mem_ctrls.dram.avgRdBW              575.695644                       # Average DRAM read bandwidth in MiBytes/s
system.mem_ctrls.dram.avgWrBW              572.090305                       # Average DRAM write bandwidth in MiBytes/s
system.mem_ctrls.dram.peakBW                 12800.00                       # Theoretical peak bandwidth in MiByte/s
system.mem_ctrls.dram.busUtil                    8.97                       # Data bus utilization in percentage
system.mem_ctrls.dram.busUtilRead                4.50                       # Data bus utilization in percentage for reads
system.mem_ctrls.dram.busUtilWrite               4.47                       # Data bus utilization in percentage for writes
system.mem_ctrls.dram.pageHitRate               89.92                       # Row buffer hit rate, read and write combined
system.mem_ctrls.dram.power_state.pwrStateResidencyTicks::UNDEFINED 165496781000                       # Cumulative time (in ticks) in various power states
system.mem_ctrls.dram.rank0.actEnergy      1068308220                       # Energy for activate commands per rank (pJ)
system.mem_ctrls.dram.rank0.preEnergy       567819285                       # Energy for precharge commands per rank (pJ)
system.mem_ctrls.dram.rank0.readEnergy     5314416240                       # Energy for read commands per rank (pJ)
system.mem_ctrls.dram.rank0.writeEnergy    3861756000                       # Energy for write commands per rank (pJ)
system.mem_ctrls.dram.rank0.refreshEnergy 13064173200.000002                       # Energy for refresh commands per rank (pJ)
system.mem_ctrls.dram.rank0.actBackEnergy  37000197390                       # Energy for active background per rank (pJ)
system.mem_ctrls.dram.rank0.preBackEnergy  32392783200                       # Energy for precharge background per rank (pJ)
system.mem_ctrls.dram.rank0.actPowerDownEnergy            0                       # Energy for active power-down per rank (pJ)
system.mem_ctrls.dram.rank0.prePowerDownEnergy            0                       # Energy for precharge power-down per rank (pJ)
system.mem_ctrls.dram.rank0.selfRefreshEnergy            0                       # Energy for self refresh per rank (pJ)
system.mem_ctrls.dram.rank0.totalEnergy   93269453535                       # Total energy per rank (pJ)
system.mem_ctrls.dram.rank0.averagePower   563.572614                       # Core power per rank (mW)
system.mem_ctrls.dram.rank0.totalIdleTime            0                       # Total Idle time Per DRAM Rank
system.mem_ctrls.dram.rank0.pwrStateTime::IDLE  82833407500                       # Time in different power states
system.mem_ctrls.dram.rank0.pwrStateTime::REF   5526077250                       # Time in different power states
system.mem_ctrls.dram.rank0.pwrStateTime::SREF            0                       # Time in different power states
system.mem_ctrls.dram.rank0.pwrStateTime::PRE_PDN            0                       # Time in different power states
system.mem_ctrls.dram.rank0.pwrStateTime::ACT  77137296250                       # Time in different power states
system.mem_ctrls.dram.rank0.pwrStateTime::ACT_PDN            0                       # Time in different power states
system.mem_ctrls.dram.rank1.actEnergy      1068058320                       # Energy for activate commands per rank (pJ)
system.mem_ctrls.dram.rank1.preEnergy       567686460                       # Energy for precharge commands per rank (pJ)
system.mem_ctrls.dram.rank1.readEnergy     5314787520                       # Energy for read commands per rank (pJ)
system.mem_ctrls.dram.rank1.writeEnergy    3860508420                       # Energy for write commands per rank (pJ)
system.mem_ctrls.dram.rank1.refreshEnergy 13064173200.000002                       # Energy for refresh commands per rank (pJ)
system.mem_ctrls.dram.rank1.actBackEnergy  36999100710                       # Energy for active background per rank (pJ)
system.mem_ctrls.dram.rank1.preBackEnergy  32393712000                       # Energy for precharge background per rank (pJ)
system.mem_ctrls.dram.rank1.actPowerDownEnergy            0                       # Energy for active power-down per rank (pJ)
system.mem_ctrls.dram.rank1.prePowerDownEnergy            0                       # Energy for precharge power-down per rank (pJ)
system.mem_ctrls.dram.rank1.selfRefreshEnergy            0                       # Energy for self refresh per rank (pJ)
system.mem_ctrls.dram.rank1.totalEnergy   93268026630                       # Total energy per rank (pJ)
system.mem_ctrls.dram.rank1.averagePower   563.563992                       # Core power per rank (mW)
system.mem_ctrls.dram.rank1.totalIdleTime            0                       # Total Idle time Per DRAM Rank
system.mem_ctrls.dram.rank1.pwrStateTime::IDLE  82836024500                       # Time in different power states
system.mem_ctrls.dram.rank1.pwrStateTime::REF   5526063500                       # Time in different power states
system.mem_ctrls.dram.rank1.pwrStateTime::SREF            0                       # Time in different power states
system.mem_ctrls.dram.rank1.pwrStateTime::PRE_PDN            0                       # Time in different power states
system.mem_ctrls.dram.rank1.pwrStateTime::ACT  77134693000                       # Time in different power states
system.mem_ctrls.dram.rank1.pwrStateTime::ACT_PDN            0                       # Time in different power states
system.mem_ctrls.power_state.pwrStateResidencyTicks::UNDEFINED 165496781000                       # Cumulative time (in ticks) in various power states
system.membus.trans_dist::ReadResp                285                       # Transaction distribution
system.membus.trans_dist::WritebackDirty       369848                       # Transaction distribution
system.membus.trans_dist::CleanEvict              107                       # Transaction distribution
system.membus.trans_dist::ReadExReq            371886                       # Transaction distribution
system.membus.trans_dist::ReadExResp           371886                       # Transaction distribution
system.membus.trans_dist::ReadSharedReq           285                       # Transaction distribution
system.membus.pkt_count_system.l2.mem_side_port::system.mem_ctrls.port      1114297                       # Packet count per connected requestor and responder (bytes)
system.membus.pkt_count::total                1114297                       # Packet count per connected requestor and responder (bytes)
system.membus.pkt_size_system.l2.mem_side_port::system.mem_ctrls.port    189956864                       # Cumulative packet size per connected requestor and responder (bytes)
system.membus.pkt_size::total               189956864                       # Cumulative packet size per connected requestor and responder (bytes)
system.membus.snoops                                0                       # Total snoops (count)
system.membus.snoopTraffic                          0                       # Total snoop traffic (bytes)
system.membus.snoop_fanout::samples            372171                       # Request fanout histogram
system.membus.snoop_fanout::mean                    0                       # Request fanout histogram
system.membus.snoop_fanout::stdev                   0                       # Request fanout histogram
system.membus.snoop_fanout::underflows              0      0.00%      0.00% # Request fanout histogram
system.membus.snoop_fanout::0                  372171    100.00%    100.00% # Request fanout histogram
system.membus.snoop_fanout::1                       0      0.00%    100.00% # Request fanout histogram
system.membus.snoop_fanout::overflows               0      0.00%    100.00% # Request fanout histogram
system.membus.snoop_fanout::min_value               0                       # Request fanout histogram
system.membus.snoop_fanout::max_value               0                       # Request fanout histogram
system.membus.snoop_fanout::total              372171                       # Request fanout histogram
system.membus.power_state.pwrStateResidencyTicks::UNDEFINED 165496781000                       # Cumulative time (in ticks) in various power states
system.membus.reqLayer0.occupancy          6659694000                       # Layer occupancy (ticks)
system.membus.reqLayer0.utilization               4.0                       # Layer utilization (%)
system.membus.respLayer1.occupancy         6475097500                       # Layer occupancy (ticks)
system.membus.respLayer1.utilization              3.9                       # Layer utilization (%)
system.tol2bus.trans_dist::ReadResp               344                       # Transaction distribution
system.tol2bus.trans_dist::WritebackDirty       741490                       # Transaction distribution
system.tol2bus.trans_dist::WritebackClean          103                       # Transaction distribution
system.tol2bus.trans_dist::CleanEvict             337                       # Transaction distribution
system.tol2bus.trans_dist::ReadExReq           371886                       # Transaction distribution
system.tol2bus.trans_dist::ReadExResp          371886                       # Transaction distribution
system.tol2bus.trans_dist::ReadCleanReq           270                       # Transaction distribution
system.tol2bus.trans_dist::ReadSharedReq           74                       # Transaction distribution
system.tol2bus.pkt_count_system.cpu.icache.mem_side_port::system.l2.cpu_side_port          643                       # Packet count per connected requestor and responder (bytes)
system.tol2bus.pkt_count_system.cpu.dcache.mem_side_port::system.l2.cpu_side_port      1115624                       # Packet count per connected requestor and responder (bytes)
system.tol2bus.pkt_count::total               1116267                       # Packet count per connected requestor and responder (bytes)
system.tol2bus.pkt_size_system.cpu.icache.mem_side_port::system.l2.cpu_side_port        95488                       # Cumulative packet size per connected requestor and responder (bytes)
system.tol2bus.pkt_size_system.cpu.dcache.mem_side_port::system.l2.cpu_side_port    190362112                       # Cumulative packet size per connected requestor and responder (bytes)
system.tol2bus.pkt_size::total              190457600                       # Cumulative packet size per connected requestor and responder (bytes)
system.tol2bus.snoops                          370123                       # Total snoops (count)
system.tol2bus.snoopTraffic                  94681088                       # Total snoop traffic (bytes)
system.tol2bus.snoop_fanout::samples           742353                       # Request fanout histogram
system.tol2bus.snoop_fanout::mean            0.000277                       # Request fanout histogram
system.tol2bus.snoop_fanout::stdev           0.016737                       # Request fanout histogram
system.tol2bus.snoop_fanout::underflows             0      0.00%      0.00% # Request fanout histogram
system.tol2bus.snoop_fanout::0                 742148     99.97%     99.97% # Request fanout histogram
system.tol2bus.snoop_fanout::1                    204      0.03%    100.00% # Request fanout histogram
system.tol2bus.snoop_fanout::2                      1      0.00%    100.00% # Request fanout histogram
system.tol2bus.snoop_fanout::overflows              0      0.00%    100.00% # Request fanout histogram
system.tol2bus.snoop_fanout::min_value              0                       # Request fanout histogram
system.tol2bus.snoop_fanout::max_value              2                       # Request fanout histogram
system.tol2bus.snoop_fanout::total             742353                       # Request fanout histogram
system.tol2bus.power_state.pwrStateResidencyTicks::UNDEFINED 165496781000                       # Cumulative time (in ticks) in various power states
system.tol2bus.reqLayer0.occupancy         3717997000                       # Layer occupancy (ticks)
system.tol2bus.reqLayer0.utilization              2.2                       # Layer utilization (%)
system.tol2bus.respLayer0.occupancy           2430000                       # Layer occupancy (ticks)
system.tol2bus.respLayer0.utilization             0.0                       # Layer utilization (%)
system.tol2bus.respLayer1.occupancy        3347644995                       # Layer occupancy (ticks)
system.tol2bus.respLayer1.utilization             2.0                       # Layer utilization (%)
system.voltage_domain.voltage                       1                       # Voltage in Volts

---------- End Simulation Statistics   ----------
