
---------- Begin Simulation Statistics ----------
final_tick                               109750933000                       # Number of ticks from beginning of simulation (restored from checkpoints and never reset)
host_inst_rate                                 444660                       # Simulator instruction rate (inst/s)
host_mem_usage                                 667088                       # Number of bytes of host memory used
host_op_rate                                   486597                       # Simulator op (including micro ops) rate (op/s)
host_seconds                                   224.89                       # Real time elapsed on the host
host_tick_rate                              488018117                       # Simulator tick rate (ticks/s)
sim_freq                                 1000000000000                       # Frequency of simulated ticks
sim_insts                                   100000001                       # Number of instructions simulated
sim_ops                                     109431277                       # Number of ops (including micro ops) simulated
sim_seconds                                  0.109751                       # Number of seconds simulated
sim_ticks                                109750933000                       # Number of ticks simulated
system.cpu.committedInsts                   100000001                       # Number of instructions committed
system.cpu.committedOps                     109431277                       # Number of ops (including micro ops) committed
system.cpu.cpi                               1.097509                       # CPI: cycles per instruction
system.cpu.discardedOps                        372165                       # Number of ops (including micro ops) which were discarded before commit
system.cpu.idleCycles                         1977404                       # Total number of cycles that the object has spent stopped
system.cpu.ipc                               0.911154                       # IPC: instructions per cycle
system.cpu.numCycles                        109750933                       # number of cpu cycles simulated
system.cpu.numFetchSuspends                         0                       # Number of times Execute suspended instruction fetching
system.cpu.numWorkItemsCompleted                    0                       # number of work items this cpu completed
system.cpu.numWorkItemsStarted                      0                       # number of work items this cpu started
system.cpu.op_class_0::No_OpClass                   0      0.00%      0.00% # Class of committed instruction
system.cpu.op_class_0::IntAlu                72955010     66.67%     66.67% # Class of committed instruction
system.cpu.op_class_0::IntMult                 568364      0.52%     67.19% # Class of committed instruction
system.cpu.op_class_0::IntDiv                       0      0.00%     67.19% # Class of committed instruction
system.cpu.op_class_0::FloatAdd                     0      0.00%     67.19% # Class of committed instruction
system.cpu.op_class_0::FloatCmp                     0      0.00%     67.19% # Class of committed instruction
system.cpu.op_class_0::FloatCvt                     0      0.00%     67.19% # Class of committed instruction
system.cpu.op_class_0::FloatMult                    0      0.00%     67.19% # Class of committed instruction
system.cpu.op_class_0::FloatMultAcc                 0      0.00%     67.19% # Class of committed instruction
system.cpu.op_class_0::FloatDiv                     0      0.00%     67.19% # Class of committed instruction
system.cpu.op_class_0::FloatMisc                    0      0.00%     67.19% # Class of committed instruction
system.cpu.op_class_0::FloatSqrt                    0      0.00%     67.19% # Class of committed instruction
system.cpu.op_class_0::SimdAdd                 241336      0.22%     67.41% # Class of committed instruction
system.cpu.op_class_0::SimdAddAcc                   0      0.00%     67.41% # Class of committed instruction
system.cpu.op_class_0::SimdAlu                 154628      0.14%     67.55% # Class of committed instruction
system.cpu.op_class_0::SimdCmp                 120668      0.11%     67.66% # Class of committed instruction
system.cpu.op_class_0::SimdCvt                      0      0.00%     67.66% # Class of committed instruction
system.cpu.op_class_0::SimdMisc                 44543      0.04%     67.70% # Class of committed instruction
system.cpu.op_class_0::SimdMult                     0      0.00%     67.70% # Class of committed instruction
system.cpu.op_class_0::SimdMultAcc                  0      0.00%     67.70% # Class of committed instruction
system.cpu.op_class_0::SimdShift                    0      0.00%     67.70% # Class of committed instruction
system.cpu.op_class_0::SimdShiftAcc                 0      0.00%     67.70% # Class of committed instruction
system.cpu.op_class_0::SimdDiv                      0      0.00%     67.70% # Class of committed instruction
system.cpu.op_class_0::SimdSqrt                     0      0.00%     67.70% # Class of committed instruction
system.cpu.op_class_0::SimdFloatAdd                 0      0.00%     67.70% # Class of committed instruction
system.cpu.op_class_0::SimdFloatAlu                 0      0.00%     67.70% # Class of committed instruction
system.cpu.op_class_0::SimdFloatCmp                 0      0.00%     67.70% # Class of committed instruction
system.cpu.op_class_0::SimdFloatCvt                 0      0.00%     67.70% # Class of committed instruction
system.cpu.op_class_0::SimdFloatDiv                 0      0.00%     67.70% # Class of committed instruction
system.cpu.op_class_0::SimdFloatMisc           166417      0.15%     67.85% # Class of committed instruction
system.cpu.op_class_0::SimdFloatMult                0      0.00%     67.85% # Class of committed instruction
system.cpu.op_class_0::SimdFloatMultAcc             0      0.00%     67.85% # Class of committed instruction
system.cpu.op_class_0::SimdFloatSqrt                0      0.00%     67.85% # Class of committed instruction
system.cpu.op_class_0::SimdReduceAdd                0      0.00%     67.85% # Class of committed instruction
system.cpu.op_class_0::SimdReduceAlu                0      0.00%     67.85% # Class of committed instruction
system.cpu.op_class_0::SimdReduceCmp                0      0.00%     67.85% # Class of committed instruction
system.cpu.op_class_0::SimdFloatReduceAdd            0      0.00%     67.85% # Class of committed instruction
system.cpu.op_class_0::SimdFloatReduceCmp            0      0.00%     67.85% # Class of committed instruction
system.cpu.op_class_0::SimdAes                      0      0.00%     67.85% # Class of committed instruction
system.cpu.op_class_0::SimdAesMix                   0      0.00%     67.85% # Class of committed instruction
system.cpu.op_class_0::SimdSha1Hash                 0      0.00%     67.85% # Class of committed instruction
system.cpu.op_class_0::SimdSha1Hash2                0      0.00%     67.85% # Class of committed instruction
system.cpu.op_class_0::SimdSha256Hash               0      0.00%     67.85% # Class of committed instruction
system.cpu.op_class_0::SimdSha256Hash2              0      0.00%     67.85% # Class of committed instruction
system.cpu.op_class_0::SimdShaSigma2                0      0.00%     67.85% # Class of committed instruction
system.cpu.op_class_0::SimdShaSigma3                0      0.00%     67.85% # Class of committed instruction
system.cpu.op_class_0::SimdPredAlu                  0      0.00%     67.85% # Class of committed instruction
system.cpu.op_class_0::MemRead               20645992     18.87%     86.72% # Class of committed instruction
system.cpu.op_class_0::MemWrite              14534319     13.28%    100.00% # Class of committed instruction
system.cpu.op_class_0::FloatMemRead                 0      0.00%    100.00% # Class of committed instruction
system.cpu.op_class_0::FloatMemWrite                0      0.00%    100.00% # Class of committed instruction
system.cpu.op_class_0::IprAccess                    0      0.00%    100.00% # Class of committed instruction
system.cpu.op_class_0::InstPrefetch                 0      0.00%    100.00% # Class of committed instruction
system.cpu.op_class_0::total                109431277                       # Class of committed instruction
system.cpu.tickCycles                       107773529                       # Number of cycles that the object actually ticked
system.cpu.workload.numSyscalls                    87                       # Number of system calls
system.membus.snoop_filter.hit_multi_requests            0                       # Number of requests hitting in the snoop filter with multiple (>1) holders of the requested data.
system.membus.snoop_filter.hit_multi_snoops            0                       # Number of snoops hitting in the snoop filter with multiple (>1) holders of the requested data.
system.membus.snoop_filter.hit_single_requests            0                       # Number of requests hitting in the snoop filter with a single holder of the requested data.
system.membus.snoop_filter.hit_single_snoops            0                       # Number of snoops hitting in the snoop filter with a single holder of the requested data.
system.membus.snoop_filter.tot_requests         19885                       # Total number of requests made to the snoop filter.
system.membus.snoop_filter.tot_snoops               0                       # Total number of snoops made to the snoop filter.
system.tol2bus.snoop_filter.hit_multi_requests           30                       # Number of requests hitting in the snoop filter with multiple (>1) holders of the requested data.
system.tol2bus.snoop_filter.hit_multi_snoops            0                       # Number of snoops hitting in the snoop filter with multiple (>1) holders of the requested data.
system.tol2bus.snoop_filter.hit_single_requests        30465                       # Number of requests hitting in the snoop filter with a single holder of the requested data.
system.tol2bus.snoop_filter.hit_single_snoops            0                       # Number of snoops hitting in the snoop filter with a single holder of the requested data.
system.tol2bus.snoop_filter.tot_requests        62254                       # Total number of requests made to the snoop filter.
system.tol2bus.snoop_filter.tot_snoops              0                       # Total number of snoops made to the snoop filter.
system.clk_domain.clock                          1000                       # Clock period in ticks
system.cpu.branchPred.lookups                20342906                       # Number of BP lookups
system.cpu.branchPred.condPredicted          16280180                       # Number of conditional branches predicted
system.cpu.branchPred.condIncorrect             53393                       # Number of conditional branches incorrect
system.cpu.branchPred.BTBLookups              8734225                       # Number of BTB lookups
system.cpu.branchPred.BTBHits                 8732778                       # Number of BTB hits
system.cpu.branchPred.BTBHitPct             99.983433                       # BTB Hit Percentage
system.cpu.branchPred.RASUsed                 1050478                       # Number of times the RAS was used to get a target.
system.cpu.branchPred.RASIncorrect                324                       # Number of incorrect RAS predictions.
system.cpu.branchPred.indirectLookups          434006                       # Number of indirect predictor lookups.
system.cpu.branchPred.indirectHits             300039                       # Number of indirect target hits.
system.cpu.branchPred.indirectMisses           133967                       # Number of indirect misses.
system.cpu.branchPred.indirectMispredicted         1046                       # Number of mispredicted indirect branches.
system.cpu.dcache.demand_hits::.cpu.data     34791192                       # number of demand (read+write) hits
system.cpu.dcache.demand_hits::total         34791192                       # number of demand (read+write) hits
system.cpu.dcache.overall_hits::.cpu.data     34794523                       # number of overall hits
system.cpu.dcache.overall_hits::total        34794523                       # number of overall hits
system.cpu.dcache.demand_misses::.cpu.data        40674                       # number of demand (read+write) misses
system.cpu.dcache.demand_misses::total          40674                       # number of demand (read+write) misses
system.cpu.dcache.overall_misses::.cpu.data        40704                       # number of overall misses
system.cpu.dcache.overall_misses::total         40704                       # number of overall misses
system.cpu.dcache.demand_miss_latency::.cpu.data   3261435000                       # number of demand (read+write) miss cycles
system.cpu.dcache.demand_miss_latency::total   3261435000                       # number of demand (read+write) miss cycles
system.cpu.dcache.overall_miss_latency::.cpu.data   3261435000                       # number of overall miss cycles
system.cpu.dcache.overall_miss_latency::total   3261435000                       # number of overall miss cycles
system.cpu.dcache.demand_accesses::.cpu.data     34831866                       # number of demand (read+write) accesses
system.cpu.dcache.demand_accesses::total     34831866                       # number of demand (read+write) accesses
system.cpu.dcache.overall_accesses::.cpu.data     34835227                       # number of overall (read+write) accesses
system.cpu.dcache.overall_accesses::total     34835227                       # number of overall (read+write) accesses
system.cpu.dcache.demand_miss_rate::.cpu.data     0.001168                       # miss rate for demand accesses
system.cpu.dcache.demand_miss_rate::total     0.001168                       # miss rate for demand accesses
system.cpu.dcache.overall_miss_rate::.cpu.data     0.001168                       # miss rate for overall accesses
system.cpu.dcache.overall_miss_rate::total     0.001168                       # miss rate for overall accesses
system.cpu.dcache.demand_avg_miss_latency::.cpu.data 80184.761764                       # average overall miss latency
system.cpu.dcache.demand_avg_miss_latency::total 80184.761764                       # average overall miss latency
system.cpu.dcache.overall_avg_miss_latency::.cpu.data 80125.663325                       # average overall miss latency
system.cpu.dcache.overall_avg_miss_latency::total 80125.663325                       # average overall miss latency
system.cpu.dcache.blocked_cycles::no_mshrs            0                       # number of cycles access was blocked
system.cpu.dcache.blocked_cycles::no_targets            0                       # number of cycles access was blocked
system.cpu.dcache.blocked::no_mshrs                 0                       # number of cycles access was blocked
system.cpu.dcache.blocked::no_targets               0                       # number of cycles access was blocked
system.cpu.dcache.avg_blocked_cycles::no_mshrs          nan                       # average number of cycles each access was blocked
system.cpu.dcache.avg_blocked_cycles::no_targets          nan                       # average number of cycles each access was blocked
system.cpu.dcache.writebacks::.writebacks        29003                       # number of writebacks
system.cpu.dcache.writebacks::total             29003                       # number of writebacks
system.cpu.dcache.demand_mshr_hits::.cpu.data         9443                       # number of demand (read+write) MSHR hits
system.cpu.dcache.demand_mshr_hits::total         9443                       # number of demand (read+write) MSHR hits
system.cpu.dcache.overall_mshr_hits::.cpu.data         9443                       # number of overall MSHR hits
system.cpu.dcache.overall_mshr_hits::total         9443                       # number of overall MSHR hits
system.cpu.dcache.demand_mshr_misses::.cpu.data        31231                       # number of demand (read+write) MSHR misses
system.cpu.dcache.demand_mshr_misses::total        31231                       # number of demand (read+write) MSHR misses
system.cpu.dcache.overall_mshr_misses::.cpu.data        31247                       # number of overall MSHR misses
system.cpu.dcache.overall_mshr_misses::total        31247                       # number of overall MSHR misses
system.cpu.dcache.demand_mshr_miss_latency::.cpu.data   2488503000                       # number of demand (read+write) MSHR miss cycles
system.cpu.dcache.demand_mshr_miss_latency::total   2488503000                       # number of demand (read+write) MSHR miss cycles
system.cpu.dcache.overall_mshr_miss_latency::.cpu.data   2489503000                       # number of overall MSHR miss cycles
system.cpu.dcache.overall_mshr_miss_latency::total   2489503000                       # number of overall MSHR miss cycles
system.cpu.dcache.demand_mshr_miss_rate::.cpu.data     0.000897                       # mshr miss rate for demand accesses
system.cpu.dcache.demand_mshr_miss_rate::total     0.000897                       # mshr miss rate for demand accesses
system.cpu.dcache.overall_mshr_miss_rate::.cpu.data     0.000897                       # mshr miss rate for overall accesses
system.cpu.dcache.overall_mshr_miss_rate::total     0.000897                       # mshr miss rate for overall accesses
system.cpu.dcache.demand_avg_mshr_miss_latency::.cpu.data 79680.541769                       # average overall mshr miss latency
system.cpu.dcache.demand_avg_mshr_miss_latency::total 79680.541769                       # average overall mshr miss latency
system.cpu.dcache.overall_avg_mshr_miss_latency::.cpu.data 79671.744487                       # average overall mshr miss latency
system.cpu.dcache.overall_avg_mshr_miss_latency::total 79671.744487                       # average overall mshr miss latency
system.cpu.dcache.replacements                  30223                       # number of replacements
system.cpu.dcache.ReadReq_hits::.cpu.data     20609185                       # number of ReadReq hits
system.cpu.dcache.ReadReq_hits::total        20609185                       # number of ReadReq hits
system.cpu.dcache.ReadReq_misses::.cpu.data        12986                       # number of ReadReq misses
system.cpu.dcache.ReadReq_misses::total         12986                       # number of ReadReq misses
system.cpu.dcache.ReadReq_miss_latency::.cpu.data    358767000                       # number of ReadReq miss cycles
system.cpu.dcache.ReadReq_miss_latency::total    358767000                       # number of ReadReq miss cycles
system.cpu.dcache.ReadReq_accesses::.cpu.data     20622171                       # number of ReadReq accesses(hits+misses)
system.cpu.dcache.ReadReq_accesses::total     20622171                       # number of ReadReq accesses(hits+misses)
system.cpu.dcache.ReadReq_miss_rate::.cpu.data     0.000630                       # miss rate for ReadReq accesses
system.cpu.dcache.ReadReq_miss_rate::total     0.000630                       # miss rate for ReadReq accesses
system.cpu.dcache.ReadReq_avg_miss_latency::.cpu.data 27627.213923                       # average ReadReq miss latency
system.cpu.dcache.ReadReq_avg_miss_latency::total 27627.213923                       # average ReadReq miss latency
system.cpu.dcache.ReadReq_mshr_hits::.cpu.data         1174                       # number of ReadReq MSHR hits
system.cpu.dcache.ReadReq_mshr_hits::total         1174                       # number of ReadReq MSHR hits
system.cpu.dcache.ReadReq_mshr_misses::.cpu.data        11812                       # number of ReadReq MSHR misses
system.cpu.dcache.ReadReq_mshr_misses::total        11812                       # number of ReadReq MSHR misses
system.cpu.dcache.ReadReq_mshr_miss_latency::.cpu.data    295037000                       # number of ReadReq MSHR miss cycles
system.cpu.dcache.ReadReq_mshr_miss_latency::total    295037000                       # number of ReadReq MSHR miss cycles
system.cpu.dcache.ReadReq_mshr_miss_rate::.cpu.data     0.000573                       # mshr miss rate for ReadReq accesses
system.cpu.dcache.ReadReq_mshr_miss_rate::total     0.000573                       # mshr miss rate for ReadReq accesses
system.cpu.dcache.ReadReq_avg_mshr_miss_latency::.cpu.data 24977.734507                       # average ReadReq mshr miss latency
system.cpu.dcache.ReadReq_avg_mshr_miss_latency::total 24977.734507                       # average ReadReq mshr miss latency
system.cpu.dcache.WriteReq_hits::.cpu.data     14182007                       # number of WriteReq hits
system.cpu.dcache.WriteReq_hits::total       14182007                       # number of WriteReq hits
system.cpu.dcache.WriteReq_misses::.cpu.data        27688                       # number of WriteReq misses
system.cpu.dcache.WriteReq_misses::total        27688                       # number of WriteReq misses
system.cpu.dcache.WriteReq_miss_latency::.cpu.data   2902668000                       # number of WriteReq miss cycles
system.cpu.dcache.WriteReq_miss_latency::total   2902668000                       # number of WriteReq miss cycles
system.cpu.dcache.WriteReq_accesses::.cpu.data     14209695                       # number of WriteReq accesses(hits+misses)
system.cpu.dcache.WriteReq_accesses::total     14209695                       # number of WriteReq accesses(hits+misses)
system.cpu.dcache.WriteReq_miss_rate::.cpu.data     0.001949                       # miss rate for WriteReq accesses
system.cpu.dcache.WriteReq_miss_rate::total     0.001949                       # miss rate for WriteReq accesses
system.cpu.dcache.WriteReq_avg_miss_latency::.cpu.data 104834.874314                       # average WriteReq miss latency
system.cpu.dcache.WriteReq_avg_miss_latency::total 104834.874314                       # average WriteReq miss latency
system.cpu.dcache.WriteReq_mshr_hits::.cpu.data         8269                       # number of WriteReq MSHR hits
system.cpu.dcache.WriteReq_mshr_hits::total         8269                       # number of WriteReq MSHR hits
system.cpu.dcache.WriteReq_mshr_misses::.cpu.data        19419                       # number of WriteReq MSHR misses
system.cpu.dcache.WriteReq_mshr_misses::total        19419                       # number of WriteReq MSHR misses
system.cpu.dcache.WriteReq_mshr_miss_latency::.cpu.data   2193466000                       # number of WriteReq MSHR miss cycles
system.cpu.dcache.WriteReq_mshr_miss_latency::total   2193466000                       # number of WriteReq MSHR miss cycles
system.cpu.dcache.WriteReq_mshr_miss_rate::.cpu.data     0.001367                       # mshr miss rate for WriteReq accesses
system.cpu.dcache.WriteReq_mshr_miss_rate::total     0.001367                       # mshr miss rate for WriteReq accesses
system.cpu.dcache.WriteReq_avg_mshr_miss_latency::.cpu.data 112954.632061                       # average WriteReq mshr miss latency
system.cpu.dcache.WriteReq_avg_mshr_miss_latency::total 112954.632061                       # average WriteReq mshr miss latency
system.cpu.dcache.SoftPFReq_hits::.cpu.data         3331                       # number of SoftPFReq hits
system.cpu.dcache.SoftPFReq_hits::total          3331                       # number of SoftPFReq hits
system.cpu.dcache.SoftPFReq_misses::.cpu.data           30                       # number of SoftPFReq misses
system.cpu.dcache.SoftPFReq_misses::total           30                       # number of SoftPFReq misses
system.cpu.dcache.SoftPFReq_accesses::.cpu.data         3361                       # number of SoftPFReq accesses(hits+misses)
system.cpu.dcache.SoftPFReq_accesses::total         3361                       # number of SoftPFReq accesses(hits+misses)
system.cpu.dcache.SoftPFReq_miss_rate::.cpu.data     0.008926                       # miss rate for SoftPFReq accesses
system.cpu.dcache.SoftPFReq_miss_rate::total     0.008926                       # miss rate for SoftPFReq accesses
system.cpu.dcache.SoftPFReq_mshr_misses::.cpu.data           16                       # number of SoftPFReq MSHR misses
system.cpu.dcache.SoftPFReq_mshr_misses::total           16                       # number of SoftPFReq MSHR misses
system.cpu.dcache.SoftPFReq_mshr_miss_latency::.cpu.data      1000000                       # number of SoftPFReq MSHR miss cycles
system.cpu.dcache.SoftPFReq_mshr_miss_latency::total      1000000                       # number of SoftPFReq MSHR miss cycles
system.cpu.dcache.SoftPFReq_mshr_miss_rate::.cpu.data     0.004760                       # mshr miss rate for SoftPFReq accesses
system.cpu.dcache.SoftPFReq_mshr_miss_rate::total     0.004760                       # mshr miss rate for SoftPFReq accesses
system.cpu.dcache.SoftPFReq_avg_mshr_miss_latency::.cpu.data        62500                       # average SoftPFReq mshr miss latency
system.cpu.dcache.SoftPFReq_avg_mshr_miss_latency::total        62500                       # average SoftPFReq mshr miss latency
system.cpu.dcache.LoadLockedReq_hits::.cpu.data        89080                       # number of LoadLockedReq hits
system.cpu.dcache.LoadLockedReq_hits::total        89080                       # number of LoadLockedReq hits
system.cpu.dcache.LoadLockedReq_accesses::.cpu.data        89080                       # number of LoadLockedReq accesses(hits+misses)
system.cpu.dcache.LoadLockedReq_accesses::total        89080                       # number of LoadLockedReq accesses(hits+misses)
system.cpu.dcache.StoreCondReq_hits::.cpu.data        89080                       # number of StoreCondReq hits
system.cpu.dcache.StoreCondReq_hits::total        89080                       # number of StoreCondReq hits
system.cpu.dcache.StoreCondReq_accesses::.cpu.data        89080                       # number of StoreCondReq accesses(hits+misses)
system.cpu.dcache.StoreCondReq_accesses::total        89080                       # number of StoreCondReq accesses(hits+misses)
system.cpu.dcache.power_state.pwrStateResidencyTicks::UNDEFINED 109750933000                       # Cumulative time (in ticks) in various power states
system.cpu.dcache.tags.tagsinuse          1018.407866                       # Cycle average of tags in use
system.cpu.dcache.tags.total_refs            35003930                       # Total number of references to valid blocks.
system.cpu.dcache.tags.sampled_refs             31247                       # Sample count of references to valid blocks.
system.cpu.dcache.tags.avg_refs           1120.233302                       # Average number of references to valid blocks.
system.cpu.dcache.tags.warmup_cycle            233000                       # Cycle when the warmup percentage was hit.
system.cpu.dcache.tags.occ_blocks::.cpu.data  1018.407866                       # Average occupied blocks per requestor
system.cpu.dcache.tags.occ_percent::.cpu.data     0.994539                       # Average percentage of cache occupancy
system.cpu.dcache.tags.occ_percent::total     0.994539                       # Average percentage of cache occupancy
system.cpu.dcache.tags.occ_task_id_blocks::1024         1024                       # Occupied blocks per task id
system.cpu.dcache.tags.age_task_id_blocks_1024::0            1                       # Occupied blocks per task id
system.cpu.dcache.tags.age_task_id_blocks_1024::1           12                       # Occupied blocks per task id
system.cpu.dcache.tags.age_task_id_blocks_1024::2          178                       # Occupied blocks per task id
system.cpu.dcache.tags.age_task_id_blocks_1024::3          775                       # Occupied blocks per task id
system.cpu.dcache.tags.age_task_id_blocks_1024::4           58                       # Occupied blocks per task id
system.cpu.dcache.tags.occ_task_id_percent::1024            1                       # Percentage of cache occupancy per task id
system.cpu.dcache.tags.tag_accesses          70058021                       # Number of tag accesses
system.cpu.dcache.tags.data_accesses         70058021                       # Number of data accesses
system.cpu.dcache.tags.power_state.pwrStateResidencyTicks::UNDEFINED 109750933000                       # Cumulative time (in ticks) in various power states
system.cpu.dtb.instHits                             0                       # ITB inst hits
system.cpu.dtb.instMisses                           0                       # ITB inst misses
system.cpu.dtb.readHits                             0                       # DTB read hits
system.cpu.dtb.readMisses                           0                       # DTB read misses
system.cpu.dtb.writeHits                            0                       # DTB write hits
system.cpu.dtb.writeMisses                          0                       # DTB write misses
system.cpu.dtb.inserts                              0                       # Number of times an entry is inserted into the TLB
system.cpu.dtb.flushTlb                             0                       # Number of times complete TLB was flushed
system.cpu.dtb.flushTlbMva                          0                       # Number of times TLB was flushed by MVA
system.cpu.dtb.flushTlbMvaAsid                      0                       # Number of times TLB was flushed by MVA & ASID
system.cpu.dtb.flushTlbAsid                         0                       # Number of times TLB was flushed by ASID
system.cpu.dtb.flushedEntries                       0                       # Number of entries that have been flushed from TLB
system.cpu.dtb.alignFaults                          0                       # Number of TLB faults due to alignment restrictions
system.cpu.dtb.prefetchFaults                       0                       # Number of TLB faults due to prefetch
system.cpu.dtb.domainFaults                         0                       # Number of TLB faults due to domain restrictions
system.cpu.dtb.permsFaults                          0                       # Number of TLB faults due to permissions restrictions
system.cpu.dtb.readAccesses                         0                       # DTB read accesses
system.cpu.dtb.writeAccesses                        0                       # DTB write accesses
system.cpu.dtb.instAccesses                         0                       # ITB inst accesses
system.cpu.dtb.hits                                 0                       # Total TLB (inst and data) hits
system.cpu.dtb.misses                               0                       # Total TLB (inst and data) misses
system.cpu.dtb.accesses                             0                       # Total TLB (inst and data) accesses
system.cpu.dtb.stage2_mmu.stage2_tlb.instHits            0                       # ITB inst hits
system.cpu.dtb.stage2_mmu.stage2_tlb.instMisses            0                       # ITB inst misses
system.cpu.dtb.stage2_mmu.stage2_tlb.readHits            0                       # DTB read hits
system.cpu.dtb.stage2_mmu.stage2_tlb.readMisses            0                       # DTB read misses
system.cpu.dtb.stage2_mmu.stage2_tlb.writeHits            0                       # DTB write hits
system.cpu.dtb.stage2_mmu.stage2_tlb.writeMisses            0                       # DTB write misses
system.cpu.dtb.stage2_mmu.stage2_tlb.inserts            0                       # Number of times an entry is inserted into the TLB
system.cpu.dtb.stage2_mmu.stage2_tlb.flushTlb            0                       # Number of times complete TLB was flushed
system.cpu.dtb.stage2_mmu.stage2_tlb.flushTlbMva            0                       # Number of times TLB was flushed by MVA
system.cpu.dtb.stage2_mmu.stage2_tlb.flushTlbMvaAsid            0                       # Number of times TLB was flushed by MVA & ASID
system.cpu.dtb.stage2_mmu.stage2_tlb.flushTlbAsid            0                       # Number of times TLB was flushed by ASID
system.cpu.dtb.stage2_mmu.stage2_tlb.flushedEntries            0                       # Number of entries that have been flushed from TLB
system.cpu.dtb.stage2_mmu.stage2_tlb.alignFaults            0                       # Number of TLB faults due to alignment restrictions
system.cpu.dtb.stage2_mmu.stage2_tlb.prefetchFaults            0                       # Number of TLB faults due to prefetch
system.cpu.dtb.stage2_mmu.stage2_tlb.domainFaults            0                       # Number of TLB faults due to domain restrictions
system.cpu.dtb.stage2_mmu.stage2_tlb.permsFaults            0                       # Number of TLB faults due to permissions restrictions
system.cpu.dtb.stage2_mmu.stage2_tlb.readAccesses            0                       # DTB read accesses
system.cpu.dtb.stage2_mmu.stage2_tlb.writeAccesses            0                       # DTB write accesses
system.cpu.dtb.stage2_mmu.stage2_tlb.instAccesses            0                       # ITB inst accesses
system.cpu.dtb.stage2_mmu.stage2_tlb.hits            0                       # Total TLB (inst and data) hits
system.cpu.dtb.stage2_mmu.stage2_tlb.misses            0                       # Total TLB (inst and data) misses
system.cpu.dtb.stage2_mmu.stage2_tlb.accesses            0                       # Total TLB (inst and data) accesses
system.cpu.dtb.stage2_mmu.stage2_tlb.walker.walks            0                       # Table walker walks requested
system.cpu.dtb.stage2_mmu.stage2_tlb.walker.requestOrigin_Requested::Data            0                       # Table walker requests started/completed, data/inst
system.cpu.dtb.stage2_mmu.stage2_tlb.walker.requestOrigin_Requested::Inst            0                       # Table walker requests started/completed, data/inst
system.cpu.dtb.stage2_mmu.stage2_tlb.walker.requestOrigin_Requested::total            0                       # Table walker requests started/completed, data/inst
system.cpu.dtb.stage2_mmu.stage2_tlb.walker.requestOrigin_Completed::Data            0                       # Table walker requests started/completed, data/inst
system.cpu.dtb.stage2_mmu.stage2_tlb.walker.requestOrigin_Completed::Inst            0                       # Table walker requests started/completed, data/inst
system.cpu.dtb.stage2_mmu.stage2_tlb.walker.requestOrigin_Completed::total            0                       # Table walker requests started/completed, data/inst
system.cpu.dtb.stage2_mmu.stage2_tlb.walker.requestOrigin::total            0                       # Table walker requests started/completed, data/inst
system.cpu.dtb.stage2_mmu.stage2_tlb.walker.power_state.pwrStateResidencyTicks::UNDEFINED 109750933000                       # Cumulative time (in ticks) in various power states
system.cpu.dtb.walker.walks                         0                       # Table walker walks requested
system.cpu.dtb.walker.requestOrigin_Requested::Data            0                       # Table walker requests started/completed, data/inst
system.cpu.dtb.walker.requestOrigin_Requested::Inst            0                       # Table walker requests started/completed, data/inst
system.cpu.dtb.walker.requestOrigin_Requested::total            0                       # Table walker requests started/completed, data/inst
system.cpu.dtb.walker.requestOrigin_Completed::Data            0                       # Table walker requests started/completed, data/inst
system.cpu.dtb.walker.requestOrigin_Completed::Inst            0                       # Table walker requests started/completed, data/inst
system.cpu.dtb.walker.requestOrigin_Completed::total            0                       # Table walker requests started/completed, data/inst
system.cpu.dtb.walker.requestOrigin::total            0                       # Table walker requests started/completed, data/inst
system.cpu.dtb.walker.power_state.pwrStateResidencyTicks::UNDEFINED 109750933000                       # Cumulative time (in ticks) in various power states
system.cpu.fetch2.intInstructions            49216231                       # Number of integer instructions successfully decoded
system.cpu.fetch2.fpInstructions                    0                       # Number of floating point instructions successfully decoded
system.cpu.fetch2.vecInstructions                   0                       # Number of SIMD instructions successfully decoded
system.cpu.fetch2.loadInstructions           17099782                       # Number of memory load instructions successfully decoded
system.cpu.fetch2.storeInstructions           9758789                       # Number of memory store instructions successfully decoded
system.cpu.fetch2.amoInstructions                   0                       # Number of memory atomic instructions successfully decoded
system.cpu.icache.demand_hits::.cpu.inst     26889741                       # number of demand (read+write) hits
system.cpu.icache.demand_hits::total         26889741                       # number of demand (read+write) hits
system.cpu.icache.overall_hits::.cpu.inst     26889741                       # number of overall hits
system.cpu.icache.overall_hits::total        26889741                       # number of overall hits
system.cpu.icache.demand_misses::.cpu.inst          549                       # number of demand (read+write) misses
system.cpu.icache.demand_misses::total            549                       # number of demand (read+write) misses
system.cpu.icache.overall_misses::.cpu.inst          549                       # number of overall misses
system.cpu.icache.overall_misses::total           549                       # number of overall misses
system.cpu.icache.demand_miss_latency::.cpu.inst     42036000                       # number of demand (read+write) miss cycles
system.cpu.icache.demand_miss_latency::total     42036000                       # number of demand (read+write) miss cycles
system.cpu.icache.overall_miss_latency::.cpu.inst     42036000                       # number of overall miss cycles
system.cpu.icache.overall_miss_latency::total     42036000                       # number of overall miss cycles
system.cpu.icache.demand_accesses::.cpu.inst     26890290                       # number of demand (read+write) accesses
system.cpu.icache.demand_accesses::total     26890290                       # number of demand (read+write) accesses
system.cpu.icache.overall_accesses::.cpu.inst     26890290                       # number of overall (read+write) accesses
system.cpu.icache.overall_accesses::total     26890290                       # number of overall (read+write) accesses
system.cpu.icache.demand_miss_rate::.cpu.inst     0.000020                       # miss rate for demand accesses
system.cpu.icache.demand_miss_rate::total     0.000020                       # miss rate for demand accesses
system.cpu.icache.overall_miss_rate::.cpu.inst     0.000020                       # miss rate for overall accesses
system.cpu.icache.overall_miss_rate::total     0.000020                       # miss rate for overall accesses
system.cpu.icache.demand_avg_miss_latency::.cpu.inst 76568.306011                       # average overall miss latency
system.cpu.icache.demand_avg_miss_latency::total 76568.306011                       # average overall miss latency
system.cpu.icache.overall_avg_miss_latency::.cpu.inst 76568.306011                       # average overall miss latency
system.cpu.icache.overall_avg_miss_latency::total 76568.306011                       # average overall miss latency
system.cpu.icache.blocked_cycles::no_mshrs            0                       # number of cycles access was blocked
system.cpu.icache.blocked_cycles::no_targets            0                       # number of cycles access was blocked
system.cpu.icache.blocked::no_mshrs                 0                       # number of cycles access was blocked
system.cpu.icache.blocked::no_targets               0                       # number of cycles access was blocked
system.cpu.icache.avg_blocked_cycles::no_mshrs          nan                       # average number of cycles each access was blocked
system.cpu.icache.avg_blocked_cycles::no_targets          nan                       # average number of cycles each access was blocked
system.cpu.icache.writebacks::.writebacks          235                       # number of writebacks
system.cpu.icache.writebacks::total               235                       # number of writebacks
system.cpu.icache.demand_mshr_misses::.cpu.inst          549                       # number of demand (read+write) MSHR misses
system.cpu.icache.demand_mshr_misses::total          549                       # number of demand (read+write) MSHR misses
system.cpu.icache.overall_mshr_misses::.cpu.inst          549                       # number of overall MSHR misses
system.cpu.icache.overall_mshr_misses::total          549                       # number of overall MSHR misses
system.cpu.icache.demand_mshr_miss_latency::.cpu.inst     40938000                       # number of demand (read+write) MSHR miss cycles
system.cpu.icache.demand_mshr_miss_latency::total     40938000                       # number of demand (read+write) MSHR miss cycles
system.cpu.icache.overall_mshr_miss_latency::.cpu.inst     40938000                       # number of overall MSHR miss cycles
system.cpu.icache.overall_mshr_miss_latency::total     40938000                       # number of overall MSHR miss cycles
system.cpu.icache.demand_mshr_miss_rate::.cpu.inst     0.000020                       # mshr miss rate for demand accesses
system.cpu.icache.demand_mshr_miss_rate::total     0.000020                       # mshr miss rate for demand accesses
system.cpu.icache.overall_mshr_miss_rate::.cpu.inst     0.000020                       # mshr miss rate for overall accesses
system.cpu.icache.overall_mshr_miss_rate::total     0.000020                       # mshr miss rate for overall accesses
system.cpu.icache.demand_avg_mshr_miss_latency::.cpu.inst 74568.306011                       # average overall mshr miss latency
system.cpu.icache.demand_avg_mshr_miss_latency::total 74568.306011                       # average overall mshr miss latency
system.cpu.icache.overall_avg_mshr_miss_latency::.cpu.inst 74568.306011                       # average overall mshr miss latency
system.cpu.icache.overall_avg_mshr_miss_latency::total 74568.306011                       # average overall mshr miss latency
system.cpu.icache.replacements                    235                       # number of replacements
system.cpu.icache.ReadReq_hits::.cpu.inst     26889741                       # number of ReadReq hits
system.cpu.icache.ReadReq_hits::total        26889741                       # number of ReadReq hits
system.cpu.icache.ReadReq_misses::.cpu.inst          549                       # number of ReadReq misses
system.cpu.icache.ReadReq_misses::total           549                       # number of ReadReq misses
system.cpu.icache.ReadReq_miss_latency::.cpu.inst     42036000                       # number of ReadReq miss cycles
system.cpu.icache.ReadReq_miss_latency::total     42036000                       # number of ReadReq miss cycles
system.cpu.icache.ReadReq_accesses::.cpu.inst     26890290                       # number of ReadReq accesses(hits+misses)
system.cpu.icache.ReadReq_accesses::total     26890290                       # number of ReadReq accesses(hits+misses)
system.cpu.icache.ReadReq_miss_rate::.cpu.inst     0.000020                       # miss rate for ReadReq accesses
system.cpu.icache.ReadReq_miss_rate::total     0.000020                       # miss rate for ReadReq accesses
system.cpu.icache.ReadReq_avg_miss_latency::.cpu.inst 76568.306011                       # average ReadReq miss latency
system.cpu.icache.ReadReq_avg_miss_latency::total 76568.306011                       # average ReadReq miss latency
system.cpu.icache.ReadReq_mshr_misses::.cpu.inst          549                       # number of ReadReq MSHR misses
system.cpu.icache.ReadReq_mshr_misses::total          549                       # number of ReadReq MSHR misses
system.cpu.icache.ReadReq_mshr_miss_latency::.cpu.inst     40938000                       # number of ReadReq MSHR miss cycles
system.cpu.icache.ReadReq_mshr_miss_latency::total     40938000                       # number of ReadReq MSHR miss cycles
system.cpu.icache.ReadReq_mshr_miss_rate::.cpu.inst     0.000020                       # mshr miss rate for ReadReq accesses
system.cpu.icache.ReadReq_mshr_miss_rate::total     0.000020                       # mshr miss rate for ReadReq accesses
system.cpu.icache.ReadReq_avg_mshr_miss_latency::.cpu.inst 74568.306011                       # average ReadReq mshr miss latency
system.cpu.icache.ReadReq_avg_mshr_miss_latency::total 74568.306011                       # average ReadReq mshr miss latency
system.cpu.icache.power_state.pwrStateResidencyTicks::UNDEFINED 109750933000                       # Cumulative time (in ticks) in various power states
system.cpu.icache.tags.tagsinuse           313.914131                       # Cycle average of tags in use
system.cpu.icache.tags.total_refs            26890290                       # Total number of references to valid blocks.
system.cpu.icache.tags.sampled_refs               549                       # Sample count of references to valid blocks.
system.cpu.icache.tags.avg_refs          48980.491803                       # Average number of references to valid blocks.
system.cpu.icache.tags.warmup_cycle            113000                       # Cycle when the warmup percentage was hit.
system.cpu.icache.tags.occ_blocks::.cpu.inst   313.914131                       # Average occupied blocks per requestor
system.cpu.icache.tags.occ_percent::.cpu.inst     0.613114                       # Average percentage of cache occupancy
system.cpu.icache.tags.occ_percent::total     0.613114                       # Average percentage of cache occupancy
system.cpu.icache.tags.occ_task_id_blocks::1024          314                       # Occupied blocks per task id
system.cpu.icache.tags.age_task_id_blocks_1024::3            2                       # Occupied blocks per task id
system.cpu.icache.tags.age_task_id_blocks_1024::4          312                       # Occupied blocks per task id
system.cpu.icache.tags.occ_task_id_percent::1024     0.613281                       # Percentage of cache occupancy per task id
system.cpu.icache.tags.tag_accesses          53781129                       # Number of tag accesses
system.cpu.icache.tags.data_accesses         53781129                       # Number of data accesses
system.cpu.icache.tags.power_state.pwrStateResidencyTicks::UNDEFINED 109750933000                       # Cumulative time (in ticks) in various power states
system.cpu.itb.instHits                             0                       # ITB inst hits
system.cpu.itb.instMisses                           0                       # ITB inst misses
system.cpu.itb.readHits                             0                       # DTB read hits
system.cpu.itb.readMisses                           0                       # DTB read misses
system.cpu.itb.writeHits                            0                       # DTB write hits
system.cpu.itb.writeMisses                          0                       # DTB write misses
system.cpu.itb.inserts                              0                       # Number of times an entry is inserted into the TLB
system.cpu.itb.flushTlb                             0                       # Number of times complete TLB was flushed
system.cpu.itb.flushTlbMva                          0                       # Number of times TLB was flushed by MVA
system.cpu.itb.flushTlbMvaAsid                      0                       # Number of times TLB was flushed by MVA & ASID
system.cpu.itb.flushTlbAsid                         0                       # Number of times TLB was flushed by ASID
system.cpu.itb.flushedEntries                       0                       # Number of entries that have been flushed from TLB
system.cpu.itb.alignFaults                          0                       # Number of TLB faults due to alignment restrictions
system.cpu.itb.prefetchFaults                       0                       # Number of TLB faults due to prefetch
system.cpu.itb.domainFaults                         0                       # Number of TLB faults due to domain restrictions
system.cpu.itb.permsFaults                          0                       # Number of TLB faults due to permissions restrictions
system.cpu.itb.readAccesses                         0                       # DTB read accesses
system.cpu.itb.writeAccesses                        0                       # DTB write accesses
system.cpu.itb.instAccesses                         0                       # ITB inst accesses
system.cpu.itb.hits                                 0                       # Total TLB (inst and data) hits
system.cpu.itb.misses                               0                       # Total TLB (inst and data) misses
system.cpu.itb.accesses                             0                       # Total TLB (inst and data) accesses
system.cpu.itb.stage2_mmu.stage2_tlb.instHits            0                       # ITB inst hits
system.cpu.itb.stage2_mmu.stage2_tlb.instMisses            0                       # ITB inst misses
system.cpu.itb.stage2_mmu.stage2_tlb.readHits            0                       # DTB read hits
system.cpu.itb.stage2_mmu.stage2_tlb.readMisses            0                       # DTB read misses
system.cpu.itb.stage2_mmu.stage2_tlb.writeHits            0                       # DTB write hits
system.cpu.itb.stage2_mmu.stage2_tlb.writeMisses            0                       # DTB write misses
system.cpu.itb.stage2_mmu.stage2_tlb.inserts            0                       # Number of times an entry is inserted into the TLB
system.cpu.itb.stage2_mmu.stage2_tlb.flushTlb            0                       # Number of times complete TLB was flushed
system.cpu.itb.stage2_mmu.stage2_tlb.flushTlbMva            0                       # Number of times TLB was flushed by MVA
system.cpu.itb.stage2_mmu.stage2_tlb.flushTlbMvaAsid            0                       # Number of times TLB was flushed by MVA & ASID
system.cpu.itb.stage2_mmu.stage2_tlb.flushTlbAsid            0                       # Number of times TLB was flushed by ASID
system.cpu.itb.stage2_mmu.stage2_tlb.flushedEntries            0                       # Number of entries that have been flushed from TLB
system.cpu.itb.stage2_mmu.stage2_tlb.alignFaults            0                       # Number of TLB faults due to alignment restrictions
system.cpu.itb.stage2_mmu.stage2_tlb.prefetchFaults            0                       # Number of TLB faults due to prefetch
system.cpu.itb.stage2_mmu.stage2_tlb.domainFaults            0                       # Number of TLB faults due to domain restrictions
system.cpu.itb.stage2_mmu.stage2_tlb.permsFaults            0                       # Number of TLB faults due to permissions restrictions
system.cpu.itb.stage2_mmu.stage2_tlb.readAccesses            0                       # DTB read accesses
system.cpu.itb.stage2_mmu.stage2_tlb.writeAccesses            0                       # DTB write accesses
system.cpu.itb.stage2_mmu.stage2_tlb.instAccesses            0                       # ITB inst accesses
system.cpu.itb.stage2_mmu.stage2_tlb.hits            0                       # Total TLB (inst and data) hits
system.cpu.itb.stage2_mmu.stage2_tlb.misses            0                       # Total TLB (inst and data) misses
system.cpu.itb.stage2_mmu.stage2_tlb.accesses            0                       # Total TLB (inst and data) accesses
system.cpu.itb.stage2_mmu.stage2_tlb.walker.walks            0                       # Table walker walks requested
system.cpu.itb.stage2_mmu.stage2_tlb.walker.requestOrigin_Requested::Data            0                       # Table walker requests started/completed, data/inst
system.cpu.itb.stage2_mmu.stage2_tlb.walker.requestOrigin_Requested::Inst            0                       # Table walker requests started/completed, data/inst
system.cpu.itb.stage2_mmu.stage2_tlb.walker.requestOrigin_Requested::total            0                       # Table walker requests started/completed, data/inst
system.cpu.itb.stage2_mmu.stage2_tlb.walker.requestOrigin_Completed::Data            0                       # Table walker requests started/completed, data/inst
system.cpu.itb.stage2_mmu.stage2_tlb.walker.requestOrigin_Completed::Inst            0                       # Table walker requests started/completed, data/inst
system.cpu.itb.stage2_mmu.stage2_tlb.walker.requestOrigin_Completed::total            0                       # Table walker requests started/completed, data/inst
system.cpu.itb.stage2_mmu.stage2_tlb.walker.requestOrigin::total            0                       # Table walker requests started/completed, data/inst
system.cpu.itb.stage2_mmu.stage2_tlb.walker.power_state.pwrStateResidencyTicks::UNDEFINED 109750933000                       # Cumulative time (in ticks) in various power states
system.cpu.itb.walker.walks                         0                       # Table walker walks requested
system.cpu.itb.walker.requestOrigin_Requested::Data            0                       # Table walker requests started/completed, data/inst
system.cpu.itb.walker.requestOrigin_Requested::Inst            0                       # Table walker requests started/completed, data/inst
system.cpu.itb.walker.requestOrigin_Requested::total            0                       # Table walker requests started/completed, data/inst
system.cpu.itb.walker.requestOrigin_Completed::Data            0                       # Table walker requests started/completed, data/inst
system.cpu.itb.walker.requestOrigin_Completed::Inst            0                       # Table walker requests started/completed, data/inst
system.cpu.itb.walker.requestOrigin_Completed::total            0                       # Table walker requests started/completed, data/inst
system.cpu.itb.walker.requestOrigin::total            0                       # Table walker requests started/completed, data/inst
system.cpu.itb.walker.power_state.pwrStateResidencyTicks::UNDEFINED 109750933000                       # Cumulative time (in ticks) in various power states
system.cpu.power_state.pwrStateResidencyTicks::ON 109750933000                       # Cumulative time (in ticks) in various power states
system.cpu.thread17522.numInsts             100000001                       # Number of Instructions committed
system.cpu.thread17522.numOps               109431277                       # Number of Ops committed
system.cpu.thread17522.numMemRefs                   0                       # Number of Memory References
system.cpu_clk_domain.clock                      1000                       # Clock period in ticks
system.cpu_voltage_domain.voltage                   1                       # Voltage in Volts
system.l2.demand_hits::.cpu.inst                  215                       # number of demand (read+write) hits
system.l2.demand_hits::.cpu.data                11694                       # number of demand (read+write) hits
system.l2.demand_hits::total                    11909                       # number of demand (read+write) hits
system.l2.overall_hits::.cpu.inst                 215                       # number of overall hits
system.l2.overall_hits::.cpu.data               11694                       # number of overall hits
system.l2.overall_hits::total                   11909                       # number of overall hits
system.l2.demand_misses::.cpu.inst                334                       # number of demand (read+write) misses
system.l2.demand_misses::.cpu.data              19553                       # number of demand (read+write) misses
system.l2.demand_misses::total                  19887                       # number of demand (read+write) misses
system.l2.overall_misses::.cpu.inst               334                       # number of overall misses
system.l2.overall_misses::.cpu.data             19553                       # number of overall misses
system.l2.overall_misses::total                 19887                       # number of overall misses
system.l2.demand_miss_latency::.cpu.inst     34737000                       # number of demand (read+write) miss cycles
system.l2.demand_miss_latency::.cpu.data   2150139000                       # number of demand (read+write) miss cycles
system.l2.demand_miss_latency::total       2184876000                       # number of demand (read+write) miss cycles
system.l2.overall_miss_latency::.cpu.inst     34737000                       # number of overall miss cycles
system.l2.overall_miss_latency::.cpu.data   2150139000                       # number of overall miss cycles
system.l2.overall_miss_latency::total      2184876000                       # number of overall miss cycles
system.l2.demand_accesses::.cpu.inst              549                       # number of demand (read+write) accesses
system.l2.demand_accesses::.cpu.data            31247                       # number of demand (read+write) accesses
system.l2.demand_accesses::total                31796                       # number of demand (read+write) accesses
system.l2.overall_accesses::.cpu.inst             549                       # number of overall (read+write) accesses
system.l2.overall_accesses::.cpu.data           31247                       # number of overall (read+write) accesses
system.l2.overall_accesses::total               31796                       # number of overall (read+write) accesses
system.l2.demand_miss_rate::.cpu.inst        0.608379                       # miss rate for demand accesses
system.l2.demand_miss_rate::.cpu.data        0.625756                       # miss rate for demand accesses
system.l2.demand_miss_rate::total            0.625456                       # miss rate for demand accesses
system.l2.overall_miss_rate::.cpu.inst       0.608379                       # miss rate for overall accesses
system.l2.overall_miss_rate::.cpu.data       0.625756                       # miss rate for overall accesses
system.l2.overall_miss_rate::total           0.625456                       # miss rate for overall accesses
system.l2.demand_avg_miss_latency::.cpu.inst 104002.994012                       # average overall miss latency
system.l2.demand_avg_miss_latency::.cpu.data 109964.660154                       # average overall miss latency
system.l2.demand_avg_miss_latency::total 109864.534621                       # average overall miss latency
system.l2.overall_avg_miss_latency::.cpu.inst 104002.994012                       # average overall miss latency
system.l2.overall_avg_miss_latency::.cpu.data 109964.660154                       # average overall miss latency
system.l2.overall_avg_miss_latency::total 109864.534621                       # average overall miss latency
system.l2.blocked_cycles::no_mshrs                  0                       # number of cycles access was blocked
system.l2.blocked_cycles::no_targets                0                       # number of cycles access was blocked
system.l2.blocked::no_mshrs                         0                       # number of cycles access was blocked
system.l2.blocked::no_targets                       0                       # number of cycles access was blocked
system.l2.avg_blocked_cycles::no_mshrs            nan                       # average number of cycles each access was blocked
system.l2.avg_blocked_cycles::no_targets          nan                       # average number of cycles each access was blocked
system.l2.demand_mshr_hits::.cpu.data               2                       # number of demand (read+write) MSHR hits
system.l2.demand_mshr_hits::total                   2                       # number of demand (read+write) MSHR hits
system.l2.overall_mshr_hits::.cpu.data              2                       # number of overall MSHR hits
system.l2.overall_mshr_hits::total                  2                       # number of overall MSHR hits
system.l2.demand_mshr_misses::.cpu.inst           334                       # number of demand (read+write) MSHR misses
system.l2.demand_mshr_misses::.cpu.data         19551                       # number of demand (read+write) MSHR misses
system.l2.demand_mshr_misses::total             19885                       # number of demand (read+write) MSHR misses
system.l2.overall_mshr_misses::.cpu.inst          334                       # number of overall MSHR misses
system.l2.overall_mshr_misses::.cpu.data        19551                       # number of overall MSHR misses
system.l2.overall_mshr_misses::total            19885                       # number of overall MSHR misses
system.l2.demand_mshr_miss_latency::.cpu.inst     28057000                       # number of demand (read+write) MSHR miss cycles
system.l2.demand_mshr_miss_latency::.cpu.data   1758937000                       # number of demand (read+write) MSHR miss cycles
system.l2.demand_mshr_miss_latency::total   1786994000                       # number of demand (read+write) MSHR miss cycles
system.l2.overall_mshr_miss_latency::.cpu.inst     28057000                       # number of overall MSHR miss cycles
system.l2.overall_mshr_miss_latency::.cpu.data   1758937000                       # number of overall MSHR miss cycles
system.l2.overall_mshr_miss_latency::total   1786994000                       # number of overall MSHR miss cycles
system.l2.demand_mshr_miss_rate::.cpu.inst     0.608379                       # mshr miss rate for demand accesses
system.l2.demand_mshr_miss_rate::.cpu.data     0.625692                       # mshr miss rate for demand accesses
system.l2.demand_mshr_miss_rate::total       0.625393                       # mshr miss rate for demand accesses
system.l2.overall_mshr_miss_rate::.cpu.inst     0.608379                       # mshr miss rate for overall accesses
system.l2.overall_mshr_miss_rate::.cpu.data     0.625692                       # mshr miss rate for overall accesses
system.l2.overall_mshr_miss_rate::total      0.625393                       # mshr miss rate for overall accesses
system.l2.demand_avg_mshr_miss_latency::.cpu.inst 84002.994012                       # average overall mshr miss latency
system.l2.demand_avg_mshr_miss_latency::.cpu.data 89966.600174                       # average overall mshr miss latency
system.l2.demand_avg_mshr_miss_latency::total 89866.431984                       # average overall mshr miss latency
system.l2.overall_avg_mshr_miss_latency::.cpu.inst 84002.994012                       # average overall mshr miss latency
system.l2.overall_avg_mshr_miss_latency::.cpu.data 89966.600174                       # average overall mshr miss latency
system.l2.overall_avg_mshr_miss_latency::total 89866.431984                       # average overall mshr miss latency
system.l2.replacements                              0                       # number of replacements
system.l2.WritebackDirty_hits::.writebacks        29003                       # number of WritebackDirty hits
system.l2.WritebackDirty_hits::total            29003                       # number of WritebackDirty hits
system.l2.WritebackDirty_accesses::.writebacks        29003                       # number of WritebackDirty accesses(hits+misses)
system.l2.WritebackDirty_accesses::total        29003                       # number of WritebackDirty accesses(hits+misses)
system.l2.WritebackClean_hits::.writebacks          232                       # number of WritebackClean hits
system.l2.WritebackClean_hits::total              232                       # number of WritebackClean hits
system.l2.WritebackClean_accesses::.writebacks          232                       # number of WritebackClean accesses(hits+misses)
system.l2.WritebackClean_accesses::total          232                       # number of WritebackClean accesses(hits+misses)
system.l2.ReadExReq_hits::.cpu.data                 5                       # number of ReadExReq hits
system.l2.ReadExReq_hits::total                     5                       # number of ReadExReq hits
system.l2.ReadExReq_misses::.cpu.data           19414                       # number of ReadExReq misses
system.l2.ReadExReq_misses::total               19414                       # number of ReadExReq misses
system.l2.ReadExReq_miss_latency::.cpu.data   2135103000                       # number of ReadExReq miss cycles
system.l2.ReadExReq_miss_latency::total    2135103000                       # number of ReadExReq miss cycles
system.l2.ReadExReq_accesses::.cpu.data         19419                       # number of ReadExReq accesses(hits+misses)
system.l2.ReadExReq_accesses::total             19419                       # number of ReadExReq accesses(hits+misses)
system.l2.ReadExReq_miss_rate::.cpu.data     0.999743                       # miss rate for ReadExReq accesses
system.l2.ReadExReq_miss_rate::total         0.999743                       # miss rate for ReadExReq accesses
system.l2.ReadExReq_avg_miss_latency::.cpu.data 109977.490471                       # average ReadExReq miss latency
system.l2.ReadExReq_avg_miss_latency::total 109977.490471                       # average ReadExReq miss latency
system.l2.ReadExReq_mshr_misses::.cpu.data        19414                       # number of ReadExReq MSHR misses
system.l2.ReadExReq_mshr_misses::total          19414                       # number of ReadExReq MSHR misses
system.l2.ReadExReq_mshr_miss_latency::.cpu.data   1746823000                       # number of ReadExReq MSHR miss cycles
system.l2.ReadExReq_mshr_miss_latency::total   1746823000                       # number of ReadExReq MSHR miss cycles
system.l2.ReadExReq_mshr_miss_rate::.cpu.data     0.999743                       # mshr miss rate for ReadExReq accesses
system.l2.ReadExReq_mshr_miss_rate::total     0.999743                       # mshr miss rate for ReadExReq accesses
system.l2.ReadExReq_avg_mshr_miss_latency::.cpu.data 89977.490471                       # average ReadExReq mshr miss latency
system.l2.ReadExReq_avg_mshr_miss_latency::total 89977.490471                       # average ReadExReq mshr miss latency
system.l2.ReadCleanReq_hits::.cpu.inst            215                       # number of ReadCleanReq hits
system.l2.ReadCleanReq_hits::total                215                       # number of ReadCleanReq hits
system.l2.ReadCleanReq_misses::.cpu.inst          334                       # number of ReadCleanReq misses
system.l2.ReadCleanReq_misses::total              334                       # number of ReadCleanReq misses
system.l2.ReadCleanReq_miss_latency::.cpu.inst     34737000                       # number of ReadCleanReq miss cycles
system.l2.ReadCleanReq_miss_latency::total     34737000                       # number of ReadCleanReq miss cycles
system.l2.ReadCleanReq_accesses::.cpu.inst          549                       # number of ReadCleanReq accesses(hits+misses)
system.l2.ReadCleanReq_accesses::total            549                       # number of ReadCleanReq accesses(hits+misses)
system.l2.ReadCleanReq_miss_rate::.cpu.inst     0.608379                       # miss rate for ReadCleanReq accesses
system.l2.ReadCleanReq_miss_rate::total      0.608379                       # miss rate for ReadCleanReq accesses
system.l2.ReadCleanReq_avg_miss_latency::.cpu.inst 104002.994012                       # average ReadCleanReq miss latency
system.l2.ReadCleanReq_avg_miss_latency::total 104002.994012                       # average ReadCleanReq miss latency
system.l2.ReadCleanReq_mshr_misses::.cpu.inst          334                       # number of ReadCleanReq MSHR misses
system.l2.ReadCleanReq_mshr_misses::total          334                       # number of ReadCleanReq MSHR misses
system.l2.ReadCleanReq_mshr_miss_latency::.cpu.inst     28057000                       # number of ReadCleanReq MSHR miss cycles
system.l2.ReadCleanReq_mshr_miss_latency::total     28057000                       # number of ReadCleanReq MSHR miss cycles
system.l2.ReadCleanReq_mshr_miss_rate::.cpu.inst     0.608379                       # mshr miss rate for ReadCleanReq accesses
system.l2.ReadCleanReq_mshr_miss_rate::total     0.608379                       # mshr miss rate for ReadCleanReq accesses
system.l2.ReadCleanReq_avg_mshr_miss_latency::.cpu.inst 84002.994012                       # average ReadCleanReq mshr miss latency
system.l2.ReadCleanReq_avg_mshr_miss_latency::total 84002.994012                       # average ReadCleanReq mshr miss latency
system.l2.ReadSharedReq_hits::.cpu.data         11689                       # number of ReadSharedReq hits
system.l2.ReadSharedReq_hits::total             11689                       # number of ReadSharedReq hits
system.l2.ReadSharedReq_misses::.cpu.data          139                       # number of ReadSharedReq misses
system.l2.ReadSharedReq_misses::total             139                       # number of ReadSharedReq misses
system.l2.ReadSharedReq_miss_latency::.cpu.data     15036000                       # number of ReadSharedReq miss cycles
system.l2.ReadSharedReq_miss_latency::total     15036000                       # number of ReadSharedReq miss cycles
system.l2.ReadSharedReq_accesses::.cpu.data        11828                       # number of ReadSharedReq accesses(hits+misses)
system.l2.ReadSharedReq_accesses::total         11828                       # number of ReadSharedReq accesses(hits+misses)
system.l2.ReadSharedReq_miss_rate::.cpu.data     0.011752                       # miss rate for ReadSharedReq accesses
system.l2.ReadSharedReq_miss_rate::total     0.011752                       # miss rate for ReadSharedReq accesses
system.l2.ReadSharedReq_avg_miss_latency::.cpu.data 108172.661871                       # average ReadSharedReq miss latency
system.l2.ReadSharedReq_avg_miss_latency::total 108172.661871                       # average ReadSharedReq miss latency
system.l2.ReadSharedReq_mshr_hits::.cpu.data            2                       # number of ReadSharedReq MSHR hits
system.l2.ReadSharedReq_mshr_hits::total            2                       # number of ReadSharedReq MSHR hits
system.l2.ReadSharedReq_mshr_misses::.cpu.data          137                       # number of ReadSharedReq MSHR misses
system.l2.ReadSharedReq_mshr_misses::total          137                       # number of ReadSharedReq MSHR misses
system.l2.ReadSharedReq_mshr_miss_latency::.cpu.data     12114000                       # number of ReadSharedReq MSHR miss cycles
system.l2.ReadSharedReq_mshr_miss_latency::total     12114000                       # number of ReadSharedReq MSHR miss cycles
system.l2.ReadSharedReq_mshr_miss_rate::.cpu.data     0.011583                       # mshr miss rate for ReadSharedReq accesses
system.l2.ReadSharedReq_mshr_miss_rate::total     0.011583                       # mshr miss rate for ReadSharedReq accesses
system.l2.ReadSharedReq_avg_mshr_miss_latency::.cpu.data 88423.357664                       # average ReadSharedReq mshr miss latency
system.l2.ReadSharedReq_avg_mshr_miss_latency::total 88423.357664                       # average ReadSharedReq mshr miss latency
system.l2.power_state.pwrStateResidencyTicks::UNDEFINED 109750933000                       # Cumulative time (in ticks) in various power states
system.l2.tags.tagsinuse                 13897.555627                       # Cycle average of tags in use
system.l2.tags.total_refs                       62222                       # Total number of references to valid blocks.
system.l2.tags.sampled_refs                     19885                       # Sample count of references to valid blocks.
system.l2.tags.avg_refs                      3.129092                       # Average number of references to valid blocks.
system.l2.tags.warmup_cycle                     92000                       # Cycle when the warmup percentage was hit.
system.l2.tags.occ_blocks::.cpu.inst       333.783025                       # Average occupied blocks per requestor
system.l2.tags.occ_blocks::.cpu.data     13563.772602                       # Average occupied blocks per requestor
system.l2.tags.occ_percent::.cpu.inst        0.010186                       # Average percentage of cache occupancy
system.l2.tags.occ_percent::.cpu.data        0.413933                       # Average percentage of cache occupancy
system.l2.tags.occ_percent::total            0.424120                       # Average percentage of cache occupancy
system.l2.tags.occ_task_id_blocks::1024         19885                       # Occupied blocks per task id
system.l2.tags.age_task_id_blocks_1024::0            1                       # Occupied blocks per task id
system.l2.tags.age_task_id_blocks_1024::1            9                       # Occupied blocks per task id
system.l2.tags.age_task_id_blocks_1024::2           89                       # Occupied blocks per task id
system.l2.tags.age_task_id_blocks_1024::3          889                       # Occupied blocks per task id
system.l2.tags.age_task_id_blocks_1024::4        18897                       # Occupied blocks per task id
system.l2.tags.occ_task_id_percent::1024     0.606842                       # Percentage of cache occupancy per task id
system.l2.tags.tag_accesses                    517677                       # Number of tag accesses
system.l2.tags.data_accesses                   517677                       # Number of data accesses
system.l2.tags.power_state.pwrStateResidencyTicks::UNDEFINED 109750933000                       # Cumulative time (in ticks) in various power states
system.mem_ctrls.avgPriority_.cpu.inst::samples       668.00                       # Average QoS priority value for accepted requests
system.mem_ctrls.avgPriority_.cpu.data::samples     39102.00                       # Average QoS priority value for accepted requests
system.mem_ctrls.priorityMinLatency      0.000000018750                       # per QoS priority minimum request to response latency (s)
system.mem_ctrls.priorityMaxLatency      0.000000583000                       # per QoS priority maximum request to response latency (s)
system.mem_ctrls.numReadWriteTurnArounds            0                       # Number of turnarounds from READ to WRITE
system.mem_ctrls.numWriteReadTurnArounds            0                       # Number of turnarounds from WRITE to READ
system.mem_ctrls.numStayReadState               87840                       # Number of times bus staying in READ state
system.mem_ctrls.numStayWriteState                  0                       # Number of times bus staying in WRITE state
system.mem_ctrls.readReqs                       19885                       # Number of read requests accepted
system.mem_ctrls.writeReqs                          0                       # Number of write requests accepted
system.mem_ctrls.readBursts                     39770                       # Number of controller read bursts, including those serviced by the write queue
system.mem_ctrls.writeBursts                        0                       # Number of controller write bursts, including those merged in the write queue
system.mem_ctrls.servicedByWrQ                      0                       # Number of controller read bursts serviced by the write queue
system.mem_ctrls.mergedWrBursts                     0                       # Number of controller write bursts merged with an existing one
system.mem_ctrls.neitherReadNorWriteReqs            0                       # Number of requests that are neither read nor write
system.mem_ctrls.avgRdQLen                       2.00                       # Average read queue length when enqueuing
system.mem_ctrls.avgWrQLen                       0.00                       # Average write queue length when enqueuing
system.mem_ctrls.numRdRetry                         0                       # Number of times read queue was full causing retry
system.mem_ctrls.numWrRetry                         0                       # Number of times write queue was full causing retry
system.mem_ctrls.readPktSize::0                     0                       # Read request sizes (log2)
system.mem_ctrls.readPktSize::1                     0                       # Read request sizes (log2)
system.mem_ctrls.readPktSize::2                     0                       # Read request sizes (log2)
system.mem_ctrls.readPktSize::3                     0                       # Read request sizes (log2)
system.mem_ctrls.readPktSize::4                     0                       # Read request sizes (log2)
system.mem_ctrls.readPktSize::5                     0                       # Read request sizes (log2)
system.mem_ctrls.readPktSize::6                 39770                       # Read request sizes (log2)
system.mem_ctrls.readPktSize::7                     0                       # Read request sizes (log2)
system.mem_ctrls.writePktSize::0                    0                       # Write request sizes (log2)
system.mem_ctrls.writePktSize::1                    0                       # Write request sizes (log2)
system.mem_ctrls.writePktSize::2                    0                       # Write request sizes (log2)
system.mem_ctrls.writePktSize::3                    0                       # Write request sizes (log2)
system.mem_ctrls.writePktSize::4                    0                       # Write request sizes (log2)
system.mem_ctrls.writePktSize::5                    0                       # Write request sizes (log2)
system.mem_ctrls.writePktSize::6                    0                       # Write request sizes (log2)
system.mem_ctrls.writePktSize::7                    0                       # Write request sizes (log2)
system.mem_ctrls.rdQLenPdf::0                   19831                       # What read queue length does an incoming req see
system.mem_ctrls.rdQLenPdf::1                   19835                       # What read queue length does an incoming req see
system.mem_ctrls.rdQLenPdf::2                      50                       # What read queue length does an incoming req see
system.mem_ctrls.rdQLenPdf::3                      48                       # What read queue length does an incoming req see
system.mem_ctrls.rdQLenPdf::4                       4                       # What read queue length does an incoming req see
system.mem_ctrls.rdQLenPdf::5                       2                       # What read queue length does an incoming req see
system.mem_ctrls.rdQLenPdf::6                       0                       # What read queue length does an incoming req see
system.mem_ctrls.rdQLenPdf::7                       0                       # What read queue length does an incoming req see
system.mem_ctrls.rdQLenPdf::8                       0                       # What read queue length does an incoming req see
system.mem_ctrls.rdQLenPdf::9                       0                       # What read queue length does an incoming req see
system.mem_ctrls.rdQLenPdf::10                      0                       # What read queue length does an incoming req see
system.mem_ctrls.rdQLenPdf::11                      0                       # What read queue length does an incoming req see
system.mem_ctrls.rdQLenPdf::12                      0                       # What read queue length does an incoming req see
[...]
system.mem_ctrls.dram.bw_read::.cpu.inst       389537                       # Total read bandwidth from this memory (bytes/s)
system.mem_ctrls.dram.bw_read::.cpu.data     22801884                       # Total read bandwidth from this memory (bytes/s)
system.mem_ctrls.dram.bw_read::total         23191420                       # Total read bandwidth from this memory (bytes/s)
system.mem_ctrls.dram.bw_inst_read::.cpu.inst       389537                       # Instruction read bandwidth from this memory (bytes/s)
system.mem_ctrls.dram.bw_inst_read::total       389537                       # Instruction read bandwidth from this memory (bytes/s)
system.mem_ctrls.dram.bw_total::.cpu.inst       389537                       # Total bandwidth to/from this memory (bytes/s)
system.mem_ctrls.dram.bw_total::.cpu.data     22801884                       # Total bandwidth to/from this memory (bytes/s)
system.mem_ctrls.dram.bw_total::total        23191420                       # Total bandwidth to/from this memory (bytes/s)
system.mem_ctrls.dram.readBursts                39770                       # Number of DRAM read bursts
system.mem_ctrls.dram.writeBursts                   0                       # Number of DRAM write bursts
system.mem_ctrls.dram.perBankRdBursts::0         2510                       # Per bank write bursts
system.mem_ctrls.dram.perBankRdBursts::1         2502                       # Per bank write bursts
system.mem_ctrls.dram.perBankRdBursts::2         2476                       # Per bank write bursts
system.mem_ctrls.dram.perBankRdBursts::3         2612                       # Per bank write bursts
system.mem_ctrls.dram.perBankRdBursts::4         2440                       # Per bank write bursts
system.mem_ctrls.dram.perBankRdBursts::5         2372                       # Per bank write bursts
system.mem_ctrls.dram.perBankRdBursts::6         2432                       # Per bank write bursts
system.mem_ctrls.dram.perBankRdBursts::7         2444                       # Per bank write bursts
system.mem_ctrls.dram.perBankRdBursts::8         2466                       # Per bank write bursts
system.mem_ctrls.dram.perBankRdBursts::9         2496                       # Per bank write bursts
system.mem_ctrls.dram.perBankRdBursts::10         2486                       # Per bank write bursts
system.mem_ctrls.dram.perBankRdBursts::11         2522                       # Per bank write bursts
system.mem_ctrls.dram.perBankRdBursts::12         2506                       # Per bank write bursts
system.mem_ctrls.dram.perBankRdBursts::13         2472                       # Per bank write bursts
system.mem_ctrls.dram.perBankRdBursts::14         2528                       # Per bank write bursts
system.mem_ctrls.dram.perBankRdBursts::15         2506                       # Per bank write bursts
system.mem_ctrls.dram.perBankWrBursts::0            0                       # Per bank write bursts
system.mem_ctrls.dram.perBankWrBursts::1            0                       # Per bank write bursts
system.mem_ctrls.dram.perBankWrBursts::2            0                       # Per bank write bursts
system.mem_ctrls.dram.perBankWrBursts::3            0                       # Per bank write bursts
system.mem_ctrls.dram.perBankWrBursts::4            0                       # Per bank write bursts
system.mem_ctrls.dram.perBankWrBursts::5            0                       # Per bank write bursts
system.mem_ctrls.dram.perBankWrBursts::6            0                       # Per bank write bursts
system.mem_ctrls.dram.perBankWrBursts::7            0                       # Per bank write bursts
system.mem_ctrls.dram.perBankWrBursts::8            0                       # Per bank write bursts
system.mem_ctrls.dram.perBankWrBursts::9            0                       # Per bank write bursts
system.mem_ctrls.dram.perBankWrBursts::10            0                       # Per bank write bursts
system.mem_ctrls.dram.perBankWrBursts::11            0                       # Per bank write bursts
system.mem_ctrls.dram.perBankWrBursts::12            0                       # Per bank write bursts
system.mem_ctrls.dram.perBankWrBursts::13            0                       # Per bank write bursts
system.mem_ctrls.dram.perBankWrBursts::14            0                       # Per bank write bursts
system.mem_ctrls.dram.perBankWrBursts::15            0                       # Per bank write bursts
system.mem_ctrls.dram.totQLat               684030500                       # Total ticks spent queuing
system.mem_ctrls.dram.totBusLat             198850000                       # Total ticks spent in databus transfers
system.mem_ctrls.dram.totMemAccLat         1429718000                       # Total ticks spent from burst creation until serviced by the DRAM
system.mem_ctrls.dram.avgQLat                17199.66                       # Average queueing delay per DRAM burst
system.mem_ctrls.dram.avgBusLat               5000.00                       # Average bus latency per DRAM burst
system.mem_ctrls.dram.avgMemAccLat           35949.66                       # Average memory access latency per DRAM burst
system.mem_ctrls.dram.readRowHits               26168                       # Number of row buffer hits during reads
system.mem_ctrls.dram.writeRowHits                  0                       # Number of row buffer hits during writes
system.mem_ctrls.dram.readRowHitRate            65.80                       # Row buffer hit rate for reads
system.mem_ctrls.dram.writeRowHitRate             nan                       # Row buffer hit rate for writes
system.mem_ctrls.dram.bytesPerActivate::samples        13602                       # Bytes accessed per row activation
system.mem_ctrls.dram.bytesPerActivate::mean   187.125423                       # Bytes accessed per row activation
system.mem_ctrls.dram.bytesPerActivate::gmean   162.166319                       # Bytes accessed per row activation
system.mem_ctrls.dram.bytesPerActivate::stdev   129.086010                       # Bytes accessed per row activation
system.mem_ctrls.dram.bytesPerActivate::128-255        10579     77.78%     77.78% # Bytes accessed per row activation
system.mem_ctrls.dram.bytesPerActivate::256-383         1178      8.66%     86.44% # Bytes accessed per row activation
system.mem_ctrls.dram.bytesPerActivate::384-511          878      6.45%     92.89% # Bytes accessed per row activation
system.mem_ctrls.dram.bytesPerActivate::512-639          575      4.23%     97.12% # Bytes accessed per row activation
system.mem_ctrls.dram.bytesPerActivate::640-767          368      2.71%     99.82% # Bytes accessed per row activation
system.mem_ctrls.dram.bytesPerActivate::768-895            7      0.05%     99.88% # Bytes accessed per row activation
system.mem_ctrls.dram.bytesPerActivate::896-1023            2      0.01%     99.89% # Bytes accessed per row activation
system.mem_ctrls.dram.bytesPerActivate::1024-1151           15      0.11%    100.00% # Bytes accessed per row activation
system.mem_ctrls.dram.bytesPerActivate::total        13602                       # Bytes accessed per row activation
system.mem_ctrls.dram.bytesRead               2545280                       # Total number of bytes read from DRAM
system.mem_ctrls.dram.bytesWritten                  0                       # Total number of bytes written to DRAM
system.mem_ctrls.dram.avgRdBW               23.191420                       # Average DRAM read bandwidth in MiBytes/s
system.mem_ctrls.dram.avgWrBW                       0                       # Average DRAM write bandwidth in MiBytes/s
system.mem_ctrls.dram.peakBW                 12800.00                       # Theoretical peak bandwidth in MiByte/s
system.mem_ctrls.dram.busUtil                    0.18                       # Data bus utilization in percentage
system.mem_ctrls.dram.busUtilRead                0.18                       # Data bus utilization in percentage for reads
system.mem_ctrls.dram.busUtilWrite               0.00                       # Data bus utilization in percentage for writes
system.mem_ctrls.dram.pageHitRate               65.80                       # Row buffer hit rate, read and write combined
system.mem_ctrls.dram.power_state.pwrStateResidencyTicks::UNDEFINED 109750933000                       # Cumulative time (in ticks) in various power states
system.mem_ctrls.dram.rank0.actEnergy        49066080                       # Energy for activate commands per rank (pJ)
system.mem_ctrls.dram.rank0.preEnergy        26079240                       # Energy for precharge commands per rank (pJ)
system.mem_ctrls.dram.rank0.readEnergy      141286320                       # Energy for read commands per rank (pJ)
system.mem_ctrls.dram.rank0.writeEnergy             0                       # Energy for write commands per rank (pJ)
system.mem_ctrls.dram.rank0.refreshEnergy 8663350800.000002                       # Energy for refresh commands per rank (pJ)
system.mem_ctrls.dram.rank0.actBackEnergy  13208934330                       # Energy for active background per rank (pJ)
system.mem_ctrls.dram.rank0.preBackEnergy  31021045440                       # Energy for precharge background per rank (pJ)
system.mem_ctrls.dram.rank0.actPowerDownEnergy            0                       # Energy for active power-down per rank (pJ)
system.mem_ctrls.dram.rank0.prePowerDownEnergy            0                       # Energy for precharge power-down per rank (pJ)
system.mem_ctrls.dram.rank0.selfRefreshEnergy            0                       # Energy for self refresh per rank (pJ)
system.mem_ctrls.dram.rank0.totalEnergy   53109762210                       # Total energy per rank (pJ)
system.mem_ctrls.dram.rank0.averagePower   483.911715                       # Core power per rank (mW)
system.mem_ctrls.dram.rank0.totalIdleTime            0                       # Total Idle time Per DRAM Rank
system.mem_ctrls.dram.rank0.pwrStateTime::IDLE  80506415500                       # Time in different power states
system.mem_ctrls.dram.rank0.pwrStateTime::REF   3664700000                       # Time in different power states
system.mem_ctrls.dram.rank0.pwrStateTime::SREF            0                       # Time in different power states
system.mem_ctrls.dram.rank0.pwrStateTime::PRE_PDN            0                       # Time in different power states
system.mem_ctrls.dram.rank0.pwrStateTime::ACT  25579817500                       # Time in different power states
system.mem_ctrls.dram.rank0.pwrStateTime::ACT_PDN            0                       # Time in different power states
system.mem_ctrls.dram.rank1.actEnergy        48052200                       # Energy for activate commands per rank (pJ)
system.mem_ctrls.dram.rank1.preEnergy        25540350                       # Energy for precharge commands per rank (pJ)
system.mem_ctrls.dram.rank1.readEnergy      142671480                       # Energy for read commands per rank (pJ)
system.mem_ctrls.dram.rank1.writeEnergy             0                       # Energy for write commands per rank (pJ)
system.mem_ctrls.dram.rank1.refreshEnergy 8663350800.000002                       # Energy for refresh commands per rank (pJ)
system.mem_ctrls.dram.rank1.actBackEnergy  13011763920                       # Energy for active background per rank (pJ)
system.mem_ctrls.dram.rank1.preBackEnergy  31187083680                       # Energy for precharge background per rank (pJ)
system.mem_ctrls.dram.rank1.actPowerDownEnergy            0                       # Energy for active power-down per rank (pJ)
system.mem_ctrls.dram.rank1.prePowerDownEnergy            0                       # Energy for precharge power-down per rank (pJ)
system.mem_ctrls.dram.rank1.selfRefreshEnergy            0                       # Energy for self refresh per rank (pJ)
system.mem_ctrls.dram.rank1.totalEnergy   53078462430                       # Total energy per rank (pJ)
system.mem_ctrls.dram.rank1.averagePower   483.626526                       # Core power per rank (mW)
system.mem_ctrls.dram.rank1.totalIdleTime            0                       # Total Idle time Per DRAM Rank
system.mem_ctrls.dram.rank1.pwrStateTime::IDLE  80940565250                       # Time in different power states
system.mem_ctrls.dram.rank1.pwrStateTime::REF   3664700000                       # Time in different power states
system.mem_ctrls.dram.rank1.pwrStateTime::SREF            0                       # Time in different power states
system.mem_ctrls.dram.rank1.pwrStateTime::PRE_PDN            0                       # Time in different power states
system.mem_ctrls.dram.rank1.pwrStateTime::ACT  25145667750                       # Time in different power states
system.mem_ctrls.dram.rank1.pwrStateTime::ACT_PDN            0                       # Time in different power states
system.mem_ctrls.power_state.pwrStateResidencyTicks::UNDEFINED 109750933000                       # Cumulative time (in ticks) in various power states
system.membus.trans_dist::ReadResp                471                       # Transaction distribution
system.membus.trans_dist::ReadExReq             19414                       # Transaction distribution
system.membus.trans_dist::ReadExResp            19414                       # Transaction distribution
system.membus.trans_dist::ReadSharedReq           471                       # Transaction distribution
system.membus.pkt_count_system.l2.mem_side_port::system.mem_ctrls.port        39770                       # Packet count per connected requestor and responder (bytes)
system.membus.pkt_count::total                  39770                       # Packet count per connected requestor and responder (bytes)
system.membus.pkt_size_system.l2.mem_side_port::system.mem_ctrls.port      2545280                       # Cumulative packet size per connected requestor and responder (bytes)
system.membus.pkt_size::total                 2545280                       # Cumulative packet size per connected requestor and responder (bytes)
system.membus.snoops                                0                       # Total snoops (count)
system.membus.snoopTraffic                          0                       # Total snoop traffic (bytes)
system.membus.snoop_fanout::samples             19885                       # Request fanout histogram
system.membus.snoop_fanout::mean                    0                       # Request fanout histogram
system.membus.snoop_fanout::stdev                   0                       # Request fanout histogram
system.membus.snoop_fanout::underflows              0      0.00%      0.00% # Request fanout histogram
system.membus.snoop_fanout::0                   19885    100.00%    100.00% # Request fanout histogram
system.membus.snoop_fanout::1                       0      0.00%    100.00% # Request fanout histogram
system.membus.snoop_fanout::overflows               0      0.00%    100.00% # Request fanout histogram
system.membus.snoop_fanout::min_value               0                       # Request fanout histogram
system.membus.snoop_fanout::max_value               0                       # Request fanout histogram
system.membus.snoop_fanout::total               19885                       # Request fanout histogram
system.membus.power_state.pwrStateResidencyTicks::UNDEFINED 109750933000                       # Cumulative time (in ticks) in various power states
system.membus.reqLayer0.occupancy            19885000                       # Layer occupancy (ticks)
system.membus.reqLayer0.utilization               0.0                       # Layer utilization (%)
system.membus.respLayer1.occupancy          187252500                       # Layer occupancy (ticks)
system.membus.respLayer1.utilization              0.2                       # Layer utilization (%)
system.tol2bus.trans_dist::ReadResp             12377                       # Transaction distribution
system.tol2bus.trans_dist::WritebackDirty        29003                       # Transaction distribution
system.tol2bus.trans_dist::WritebackClean          235                       # Transaction distribution
system.tol2bus.trans_dist::CleanEvict            1220                       # Transaction distribution
system.tol2bus.trans_dist::ReadExReq            19419                       # Transaction distribution
system.tol2bus.trans_dist::ReadExResp           19419                       # Transaction distribution
system.tol2bus.trans_dist::ReadCleanReq           549                       # Transaction distribution
system.tol2bus.trans_dist::ReadSharedReq        11828                       # Transaction distribution
system.tol2bus.pkt_count_system.cpu.icache.mem_side_port::system.l2.cpu_side_port         1333                       # Packet count per connected requestor and responder (bytes)
system.tol2bus.pkt_count_system.cpu.dcache.mem_side_port::system.l2.cpu_side_port        92717                       # Packet count per connected requestor and responder (bytes)
system.tol2bus.pkt_count::total                 94050                       # Packet count per connected requestor and responder (bytes)
system.tol2bus.pkt_size_system.cpu.icache.mem_side_port::system.l2.cpu_side_port       100352                       # Cumulative packet size per connected requestor and responder (bytes)
system.tol2bus.pkt_size_system.cpu.dcache.mem_side_port::system.l2.cpu_side_port      7712000                       # Cumulative packet size per connected requestor and responder (bytes)
system.tol2bus.pkt_size::total                7812352                       # Cumulative packet size per connected requestor and responder (bytes)
system.tol2bus.snoops                               0                       # Total snoops (count)
system.tol2bus.snoopTraffic                         0                       # Total snoop traffic (bytes)
system.tol2bus.snoop_fanout::samples            31796                       # Request fanout histogram
system.tol2bus.snoop_fanout::mean            0.001164                       # Request fanout histogram
system.tol2bus.snoop_fanout::stdev           0.034093                       # Request fanout histogram
system.tol2bus.snoop_fanout::underflows             0      0.00%      0.00% # Request fanout histogram
system.tol2bus.snoop_fanout::0                  31759     99.88%     99.88% # Request fanout histogram
system.tol2bus.snoop_fanout::1                     37      0.12%    100.00% # Request fanout histogram
system.tol2bus.snoop_fanout::2                      0      0.00%    100.00% # Request fanout histogram
system.tol2bus.snoop_fanout::overflows              0      0.00%    100.00% # Request fanout histogram
system.tol2bus.snoop_fanout::min_value              0                       # Request fanout histogram
system.tol2bus.snoop_fanout::max_value              1                       # Request fanout histogram
system.tol2bus.snoop_fanout::total              31796                       # Request fanout histogram
system.tol2bus.power_state.pwrStateResidencyTicks::UNDEFINED 109750933000                       # Cumulative time (in ticks) in various power states
system.tol2bus.reqLayer0.occupancy          179206000                       # Layer occupancy (ticks)
system.tol2bus.reqLayer0.utilization              0.2                       # Layer utilization (%)
system.tol2bus.respLayer0.occupancy           2745000                       # Layer occupancy (ticks)
system.tol2bus.respLayer0.utilization             0.0                       # Layer utilization (%)
system.tol2bus.respLayer1.occupancy         156236998                       # Layer occupancy (ticks)
system.tol2bus.respLayer1.utilization             0.1                       # Layer utilization (%)
system.voltage_domain.voltage                       1                       # Voltage in Volts

---------- End Simulation Statistics   ----------
