
---------- Begin Simulation Statistics ----------
final_tick                               371571067000                       # Number of ticks from beginning of simulation (restored from checkpoints and never reset)
host_inst_rate                                 239541                       # Simulator instruction rate (inst/s)
host_mem_usage                                 659316                       # Number of bytes of host memory used
host_op_rate                                   441280                       # Simulator op (including micro ops) rate (op/s)
host_seconds                                   417.46                       # Real time elapsed on the host
host_tick_rate                              890066233                       # Simulator tick rate (ticks/s)
sim_freq                                 1000000000000                       # Frequency of simulated ticks
sim_insts                                   100000000                       # Number of instructions simulated
sim_ops                                     184218810                       # Number of ops (including micro ops) simulated
sim_seconds                                  0.371571                       # Number of seconds simulated
sim_ticks                                371571067000                       # Number of ticks simulated
system.cpu.committedInsts                   100000000                       # Number of instructions committed
system.cpu.committedOps                     184218810                       # Number of ops (including micro ops) committed
system.cpu.cpi                               3.715711                       # CPI: cycles per instruction
system.cpu.discardedOps                          4404                       # Number of ops (including micro ops) which were discarded before commit
system.cpu.idleCycles                       153836969                       # Total number of cycles that the object has spent stopped
system.cpu.ipc                               0.269128                       # IPC: instructions per cycle
system.cpu.numCycles                        371571067                       # number of cpu cycles simulated
system.cpu.numFetchSuspends                         0                       # Number of times Execute suspended instruction fetching
system.cpu.numWorkItemsCompleted                    0                       # number of work items this cpu completed
system.cpu.numWorkItemsStarted                      0                       # number of work items this cpu started
system.cpu.op_class_0::No_OpClass                   0      0.00%      0.00% # Class of committed instruction
system.cpu.op_class_0::IntAlu                97640467     53.00%     53.00% # Class of committed instruction
system.cpu.op_class_0::IntMult                 114702      0.06%     53.06% # Class of committed instruction
system.cpu.op_class_0::IntDiv                       0      0.00%     53.06% # Class of committed instruction
system.cpu.op_class_0::FloatAdd                     0      0.00%     53.06% # Class of committed instruction
system.cpu.op_class_0::FloatCmp                     0      0.00%     53.06% # Class of committed instruction
system.cpu.op_class_0::FloatCvt                     0      0.00%     53.06% # Class of committed instruction
system.cpu.op_class_0::FloatMult                    0      0.00%     53.06% # Class of committed instruction
system.cpu.op_class_0::FloatMultAcc                 0      0.00%     53.06% # Class of committed instruction
system.cpu.op_class_0::FloatDiv                     0      0.00%     53.06% # Class of committed instruction
system.cpu.op_class_0::FloatMisc                    0      0.00%     53.06% # Class of committed instruction
system.cpu.op_class_0::FloatSqrt                    0      0.00%     53.06% # Class of committed instruction
system.cpu.op_class_0::SimdAdd                      8      0.00%     53.06% # Class of committed instruction
system.cpu.op_class_0::SimdAddAcc                   0      0.00%     53.06% # Class of committed instruction
system.cpu.op_class_0::SimdAlu                     10      0.00%     53.06% # Class of committed instruction
system.cpu.op_class_0::SimdCmp                      8      0.00%     53.06% # Class of committed instruction
system.cpu.op_class_0::SimdCvt                      0      0.00%     53.06% # Class of committed instruction
system.cpu.op_class_0::SimdMisc                     1      0.00%     53.06% # Class of committed instruction
system.cpu.op_class_0::SimdMult                     0      0.00%     53.06% # Class of committed instruction
system.cpu.op_class_0::SimdMultAcc                  0      0.00%     53.06% # Class of committed instruction
system.cpu.op_class_0::SimdShift                    0      0.00%     53.06% # Class of committed instruction
system.cpu.op_class_0::SimdShiftAcc                 0      0.00%     53.06% # Class of committed instruction
system.cpu.op_class_0::SimdDiv                      0      0.00%     53.06% # Class of committed instruction
system.cpu.op_class_0::SimdSqrt                     0      0.00%     53.06% # Class of committed instruction
system.cpu.op_class_0::SimdFloatAdd                 0      0.00%     53.06% # Class of committed instruction
system.cpu.op_class_0::SimdFloatAlu                 0      0.00%     53.06% # Class of committed instruction
system.cpu.op_class_0::SimdFloatCmp                 0      0.00%     53.06% # Class of committed instruction
system.cpu.op_class_0::SimdFloatCvt                 0      0.00%     53.06% # Class of committed instruction
system.cpu.op_class_0::SimdFloatDiv                 0      0.00%     53.06% # Class of committed instruction
system.cpu.op_class_0::SimdFloatMisc               24      0.00%     53.06% # Class of committed instruction
system.cpu.op_class_0::SimdFloatMult                0      0.00%     53.06% # Class of committed instruction
system.cpu.op_class_0::SimdFloatMultAcc             0      0.00%     53.06% # Class of committed instruction
system.cpu.op_class_0::SimdFloatSqrt                0      0.00%     53.06% # Class of committed instruction
system.cpu.op_class_0::SimdReduceAdd                0      0.00%     53.06% # Class of committed instruction
system.cpu.op_class_0::SimdReduceAlu                0      0.00%     53.06% # Class of committed instruction
system.cpu.op_class_0::SimdReduceCmp                0      0.00%     53.06% # Class of committed instruction
system.cpu.op_class_0::SimdFloatReduceAdd            0      0.00%     53.06% # Class of committed instruction
system.cpu.op_class_0::SimdFloatReduceCmp            0      0.00%     53.06% # Class of committed instruction
system.cpu.op_class_0::SimdAes                      0      0.00%     53.06% # Class of committed instruction
system.cpu.op_class_0::SimdAesMix                   0      0.00%     53.06% # Class of committed instruction
system.cpu.op_class_0::SimdSha1Hash                 0      0.00%     53.06% # Class of committed instruction
system.cpu.op_class_0::SimdSha1Hash2                0      0.00%     53.06% # Class of committed instruction
system.cpu.op_class_0::SimdSha256Hash               0      0.00%     53.06% # Class of committed instruction
system.cpu.op_class_0::SimdSha256Hash2              0      0.00%     53.06% # Class of committed instruction
system.cpu.op_class_0::SimdShaSigma2                0      0.00%     53.06% # Class of committed instruction
system.cpu.op_class_0::SimdShaSigma3                0      0.00%     53.06% # Class of committed instruction
system.cpu.op_class_0::SimdPredAlu                  0      0.00%     53.06% # Class of committed instruction
system.cpu.op_class_0::MemRead                2082677      1.13%     54.20% # Class of committed instruction
system.cpu.op_class_0::MemWrite              84380913     45.80%    100.00% # Class of committed instruction
system.cpu.op_class_0::FloatMemRead                 0      0.00%    100.00% # Class of committed instruction
system.cpu.op_class_0::FloatMemWrite                0      0.00%    100.00% # Class of committed instruction
system.cpu.op_class_0::IprAccess                    0      0.00%    100.00% # Class of committed instruction
system.cpu.op_class_0::InstPrefetch                 0      0.00%    100.00% # Class of committed instruction
system.cpu.op_class_0::total                184218810                       # Class of committed instruction
system.cpu.tickCycles                       217734098                       # Number of cycles that the object actually ticked
system.cpu.workload.numSyscalls                    19                       # Number of system calls
system.membus.snoop_filter.hit_multi_requests            0                       # Number of requests hitting in the snoop filter with multiple (>1) holders of the requested data.
system.membus.snoop_filter.hit_multi_snoops            0                       # Number of snoops hitting in the snoop filter with multiple (>1) holders of the requested data.
system.membus.snoop_filter.hit_single_requests      1314037                       # Number of requests hitting in the snoop filter with a single holder of the requested data.
system.membus.snoop_filter.hit_single_snoops            0                       # Number of snoops hitting in the snoop filter with a single holder of the requested data.
system.membus.snoop_filter.tot_requests       2630312                       # Total number of requests made to the snoop filter.
system.membus.snoop_filter.tot_snoops               0                       # Total number of snoops made to the snoop filter.
system.tol2bus.snoop_filter.hit_multi_requests           56                       # Number of requests hitting in the snoop filter with multiple (>1) holders of the requested data.
system.tol2bus.snoop_filter.hit_multi_snoops            0                       # Number of snoops hitting in the snoop filter with multiple (>1) holders of the requested data.
system.tol2bus.snoop_filter.hit_single_requests      1315918                       # Number of requests hitting in the snoop filter with a single holder of the requested data.
system.tol2bus.snoop_filter.hit_single_snoops          254                       # Number of snoops hitting in the snoop filter with a single holder of the requested data.
system.tol2bus.snoop_filter.tot_requests      2632297                       # Total number of requests made to the snoop filter.
system.tol2bus.snoop_filter.tot_snoops            254                       # Total number of snoops made to the snoop filter.
system.clk_domain.clock                          1000                       # Clock period in ticks
system.cpu.branchPred.lookups                10658348                       # Number of BP lookups
system.cpu.branchPred.condPredicted          10650058                       # Number of conditional branches predicted
system.cpu.branchPred.condIncorrect              1450                       # Number of conditional branches incorrect
system.cpu.branchPred.BTBLookups             10650241                       # Number of BTB lookups
system.cpu.branchPred.BTBHits                10648835                       # Number of BTB hits
system.cpu.branchPred.BTBHitPct             99.986798                       # BTB Hit Percentage
system.cpu.branchPred.RASUsed                    2731                       # Number of times the RAS was used to get a target.
system.cpu.branchPred.RASIncorrect                  1                       # Number of incorrect RAS predictions.
system.cpu.branchPred.indirectLookups             195                       # Number of indirect predictor lookups.
system.cpu.branchPred.indirectHits                 19                       # Number of indirect target hits.
system.cpu.branchPred.indirectMisses              176                       # Number of indirect misses.
system.cpu.branchPred.indirectMispredicted          101                       # Number of mispredicted indirect branches.
system.cpu.dcache.demand_hits::.cpu.data     83749423                       # number of demand (read+write) hits
system.cpu.dcache.demand_hits::total         83749423                       # number of demand (read+write) hits
system.cpu.dcache.overall_hits::.cpu.data     83749478                       # number of overall hits
system.cpu.dcache.overall_hits::total        83749478                       # number of overall hits
system.cpu.dcache.demand_misses::.cpu.data      2631219                       # number of demand (read+write) misses
system.cpu.dcache.demand_misses::total        2631219                       # number of demand (read+write) misses
system.cpu.dcache.overall_misses::.cpu.data      2631235                       # number of overall misses
system.cpu.dcache.overall_misses::total       2631235                       # number of overall misses
system.cpu.dcache.demand_miss_latency::.cpu.data 350579914000                       # number of demand (read+write) miss cycles
system.cpu.dcache.demand_miss_latency::total 350579914000                       # number of demand (read+write) miss cycles
system.cpu.dcache.overall_miss_latency::.cpu.data 350579914000                       # number of overall miss cycles
system.cpu.dcache.overall_miss_latency::total 350579914000                       # number of overall miss cycles
system.cpu.dcache.demand_accesses::.cpu.data     86380642                       # number of demand (read+write) accesses
system.cpu.dcache.demand_accesses::total     86380642                       # number of demand (read+write) accesses
system.cpu.dcache.overall_accesses::.cpu.data     86380713                       # number of overall (read+write) accesses
system.cpu.dcache.overall_accesses::total     86380713                       # number of overall (read+write) accesses
system.cpu.dcache.demand_miss_rate::.cpu.data     0.030461                       # miss rate for demand accesses
system.cpu.dcache.demand_miss_rate::total     0.030461                       # miss rate for demand accesses
system.cpu.dcache.overall_miss_rate::.cpu.data     0.030461                       # miss rate for overall accesses
system.cpu.dcache.overall_miss_rate::total     0.030461                       # miss rate for overall accesses
system.cpu.dcache.demand_avg_miss_latency::.cpu.data 133238.591695                       # average overall miss latency
system.cpu.dcache.demand_avg_miss_latency::total 133238.591695                       # average overall miss latency
system.cpu.dcache.overall_avg_miss_latency::.cpu.data 133237.781498                       # average overall miss latency
system.cpu.dcache.overall_avg_miss_latency::total 133237.781498                       # average overall miss latency
system.cpu.dcache.blocked_cycles::no_mshrs            0                       # number of cycles access was blocked
system.cpu.dcache.blocked_cycles::no_targets            0                       # number of cycles access was blocked
system.cpu.dcache.blocked::no_mshrs                 0                       # number of cycles access was blocked
system.cpu.dcache.blocked::no_targets               0                       # number of cycles access was blocked
system.cpu.dcache.avg_blocked_cycles::no_mshrs          nan                       # average number of cycles each access was blocked
system.cpu.dcache.avg_blocked_cycles::no_targets          nan                       # average number of cycles each access was blocked
system.cpu.dcache.writebacks::.writebacks      1315661                       # number of writebacks
system.cpu.dcache.writebacks::total           1315661                       # number of writebacks
system.cpu.dcache.demand_mshr_hits::.cpu.data      1315143                       # number of demand (read+write) MSHR hits
system.cpu.dcache.demand_mshr_hits::total      1315143                       # number of demand (read+write) MSHR hits
system.cpu.dcache.overall_mshr_hits::.cpu.data      1315143                       # number of overall MSHR hits
system.cpu.dcache.overall_mshr_hits::total      1315143                       # number of overall MSHR hits
system.cpu.dcache.demand_mshr_misses::.cpu.data      1316076                       # number of demand (read+write) MSHR misses
system.cpu.dcache.demand_mshr_misses::total      1316076                       # number of demand (read+write) MSHR misses
system.cpu.dcache.overall_mshr_misses::.cpu.data      1316084                       # number of overall MSHR misses
system.cpu.dcache.overall_mshr_misses::total      1316084                       # number of overall MSHR misses
system.cpu.dcache.demand_mshr_miss_latency::.cpu.data 168117154000                       # number of demand (read+write) MSHR miss cycles
system.cpu.dcache.demand_mshr_miss_latency::total 168117154000                       # number of demand (read+write) MSHR miss cycles
system.cpu.dcache.overall_mshr_miss_latency::.cpu.data 168118129000                       # number of overall MSHR miss cycles
system.cpu.dcache.overall_mshr_miss_latency::total 168118129000                       # number of overall MSHR miss cycles
system.cpu.dcache.demand_mshr_miss_rate::.cpu.data     0.015236                       # mshr miss rate for demand accesses
system.cpu.dcache.demand_mshr_miss_rate::total     0.015236                       # mshr miss rate for demand accesses
system.cpu.dcache.overall_mshr_miss_rate::.cpu.data     0.015236                       # mshr miss rate for overall accesses
system.cpu.dcache.overall_mshr_miss_rate::total     0.015236                       # mshr miss rate for overall accesses
system.cpu.dcache.demand_avg_mshr_miss_latency::.cpu.data 127741.220112                       # average overall mshr miss latency
system.cpu.dcache.demand_avg_mshr_miss_latency::total 127741.220112                       # average overall mshr miss latency
system.cpu.dcache.overall_avg_mshr_miss_latency::.cpu.data 127741.184453                       # average overall mshr miss latency
system.cpu.dcache.overall_avg_mshr_miss_latency::total 127741.184453                       # average overall mshr miss latency
system.cpu.dcache.replacements                1315828                       # number of replacements
system.cpu.dcache.ReadReq_hits::.cpu.data      2043835                       # number of ReadReq hits
system.cpu.dcache.ReadReq_hits::total         2043835                       # number of ReadReq hits
system.cpu.dcache.ReadReq_misses::.cpu.data          213                       # number of ReadReq misses
system.cpu.dcache.ReadReq_misses::total           213                       # number of ReadReq misses
system.cpu.dcache.ReadReq_miss_latency::.cpu.data     24198000                       # number of ReadReq miss cycles
system.cpu.dcache.ReadReq_miss_latency::total     24198000                       # number of ReadReq miss cycles
system.cpu.dcache.ReadReq_accesses::.cpu.data      2044048                       # number of ReadReq accesses(hits+misses)
system.cpu.dcache.ReadReq_accesses::total      2044048                       # number of ReadReq accesses(hits+misses)
system.cpu.dcache.ReadReq_miss_rate::.cpu.data     0.000104                       # miss rate for ReadReq accesses
system.cpu.dcache.ReadReq_miss_rate::total     0.000104                       # miss rate for ReadReq accesses
system.cpu.dcache.ReadReq_avg_miss_latency::.cpu.data 113605.633803                       # average ReadReq miss latency
system.cpu.dcache.ReadReq_avg_miss_latency::total 113605.633803                       # average ReadReq miss latency
system.cpu.dcache.ReadReq_mshr_hits::.cpu.data           23                       # number of ReadReq MSHR hits
system.cpu.dcache.ReadReq_mshr_hits::total           23                       # number of ReadReq MSHR hits
system.cpu.dcache.ReadReq_mshr_misses::.cpu.data          190                       # number of ReadReq MSHR misses
system.cpu.dcache.ReadReq_mshr_misses::total          190                       # number of ReadReq MSHR misses
system.cpu.dcache.ReadReq_mshr_miss_latency::.cpu.data     21480000                       # number of ReadReq MSHR miss cycles
system.cpu.dcache.ReadReq_mshr_miss_latency::total     21480000                       # number of ReadReq MSHR miss cycles
system.cpu.dcache.ReadReq_mshr_miss_rate::.cpu.data     0.000093                       # mshr miss rate for ReadReq accesses
system.cpu.dcache.ReadReq_mshr_miss_rate::total     0.000093                       # mshr miss rate for ReadReq accesses
system.cpu.dcache.ReadReq_avg_mshr_miss_latency::.cpu.data 113052.631579                       # average ReadReq mshr miss latency
system.cpu.dcache.ReadReq_avg_mshr_miss_latency::total 113052.631579                       # average ReadReq mshr miss latency
system.cpu.dcache.WriteReq_hits::.cpu.data     81705588                       # number of WriteReq hits
system.cpu.dcache.WriteReq_hits::total       81705588                       # number of WriteReq hits
system.cpu.dcache.WriteReq_misses::.cpu.data      2631006                       # number of WriteReq misses
system.cpu.dcache.WriteReq_misses::total      2631006                       # number of WriteReq misses
system.cpu.dcache.WriteReq_miss_latency::.cpu.data 350555716000                       # number of WriteReq miss cycles
system.cpu.dcache.WriteReq_miss_latency::total 350555716000                       # number of WriteReq miss cycles
system.cpu.dcache.WriteReq_accesses::.cpu.data     84336594                       # number of WriteReq accesses(hits+misses)
system.cpu.dcache.WriteReq_accesses::total     84336594                       # number of WriteReq accesses(hits+misses)
system.cpu.dcache.WriteReq_miss_rate::.cpu.data     0.031196                       # miss rate for WriteReq accesses
system.cpu.dcache.WriteReq_miss_rate::total     0.031196                       # miss rate for WriteReq accesses
system.cpu.dcache.WriteReq_avg_miss_latency::.cpu.data 133240.181132                       # average WriteReq miss latency
system.cpu.dcache.WriteReq_avg_miss_latency::total 133240.181132                       # average WriteReq miss latency
system.cpu.dcache.WriteReq_mshr_hits::.cpu.data      1315120                       # number of WriteReq MSHR hits
system.cpu.dcache.WriteReq_mshr_hits::total      1315120                       # number of WriteReq MSHR hits
system.cpu.dcache.WriteReq_mshr_misses::.cpu.data      1315886                       # number of WriteReq MSHR misses
system.cpu.dcache.WriteReq_mshr_misses::total      1315886                       # number of WriteReq MSHR misses
system.cpu.dcache.WriteReq_mshr_miss_latency::.cpu.data 168095674000                       # number of WriteReq MSHR miss cycles
system.cpu.dcache.WriteReq_mshr_miss_latency::total 168095674000                       # number of WriteReq MSHR miss cycles
system.cpu.dcache.WriteReq_mshr_miss_rate::.cpu.data     0.015603                       # mshr miss rate for WriteReq accesses
system.cpu.dcache.WriteReq_mshr_miss_rate::total     0.015603                       # mshr miss rate for WriteReq accesses
system.cpu.dcache.WriteReq_avg_mshr_miss_latency::.cpu.data 127743.340989                       # average WriteReq mshr miss latency
system.cpu.dcache.WriteReq_avg_mshr_miss_latency::total 127743.340989                       # average WriteReq mshr miss latency
system.cpu.dcache.SoftPFReq_hits::.cpu.data           55                       # number of SoftPFReq hits
system.cpu.dcache.SoftPFReq_hits::total            55                       # number of SoftPFReq hits
system.cpu.dcache.SoftPFReq_misses::.cpu.data           16                       # number of SoftPFReq misses
system.cpu.dcache.SoftPFReq_misses::total           16                       # number of SoftPFReq misses
system.cpu.dcache.SoftPFReq_accesses::.cpu.data           71                       # number of SoftPFReq accesses(hits+misses)
system.cpu.dcache.SoftPFReq_accesses::total           71                       # number of SoftPFReq accesses(hits+misses)
system.cpu.dcache.SoftPFReq_miss_rate::.cpu.data     0.225352                       # miss rate for SoftPFReq accesses
system.cpu.dcache.SoftPFReq_miss_rate::total     0.225352                       # miss rate for SoftPFReq accesses
system.cpu.dcache.SoftPFReq_mshr_misses::.cpu.data            8                       # number of SoftPFReq MSHR misses
system.cpu.dcache.SoftPFReq_mshr_misses::total            8                       # number of SoftPFReq MSHR misses
system.cpu.dcache.SoftPFReq_mshr_miss_latency::.cpu.data       975000                       # number of SoftPFReq MSHR miss cycles
system.cpu.dcache.SoftPFReq_mshr_miss_latency::total       975000                       # number of SoftPFReq MSHR miss cycles
system.cpu.dcache.SoftPFReq_mshr_miss_rate::.cpu.data     0.112676                       # mshr miss rate for SoftPFReq accesses
system.cpu.dcache.SoftPFReq_mshr_miss_rate::total     0.112676                       # mshr miss rate for SoftPFReq accesses
system.cpu.dcache.SoftPFReq_avg_mshr_miss_latency::.cpu.data       121875                       # average SoftPFReq mshr miss latency
system.cpu.dcache.SoftPFReq_avg_mshr_miss_latency::total       121875                       # average SoftPFReq mshr miss latency
system.cpu.dcache.LoadLockedReq_hits::.cpu.data           34                       # number of LoadLockedReq hits
system.cpu.dcache.LoadLockedReq_hits::total           34                       # number of LoadLockedReq hits
system.cpu.dcache.LoadLockedReq_accesses::.cpu.data           34                       # number of LoadLockedReq accesses(hits+misses)
system.cpu.dcache.LoadLockedReq_accesses::total           34                       # number of LoadLockedReq accesses(hits+misses)
system.cpu.dcache.StoreCondReq_hits::.cpu.data           34                       # number of StoreCondReq hits
system.cpu.dcache.StoreCondReq_hits::total           34                       # number of StoreCondReq hits
system.cpu.dcache.StoreCondReq_accesses::.cpu.data           34                       # number of StoreCondReq accesses(hits+misses)
system.cpu.dcache.StoreCondReq_accesses::total           34                       # number of StoreCondReq accesses(hits+misses)
system.cpu.dcache.power_state.pwrStateResidencyTicks::UNDEFINED 371571067000                       # Cumulative time (in ticks) in various power states
system.cpu.dcache.tags.tagsinuse           255.905283                       # Cycle average of tags in use
system.cpu.dcache.tags.total_refs            85065630                       # Total number of references to valid blocks.
system.cpu.dcache.tags.sampled_refs           1316084                       # Sample count of references to valid blocks.
system.cpu.dcache.tags.avg_refs             64.635411                       # Average number of references to valid blocks.
system.cpu.dcache.tags.warmup_cycle            258000                       # Cycle when the warmup percentage was hit.
system.cpu.dcache.tags.occ_blocks::.cpu.data   255.905283                       # Average occupied blocks per requestor
system.cpu.dcache.tags.occ_percent::.cpu.data     0.999630                       # Average percentage of cache occupancy
system.cpu.dcache.tags.occ_percent::total     0.999630                       # Average percentage of cache occupancy
system.cpu.dcache.tags.occ_task_id_blocks::1024          256                       # Occupied blocks per task id
system.cpu.dcache.tags.age_task_id_blocks_1024::0           36                       # Occupied blocks per task id
system.cpu.dcache.tags.age_task_id_blocks_1024::1          220                       # Occupied blocks per task id
system.cpu.dcache.tags.occ_task_id_percent::1024            1                       # Percentage of cache occupancy per task id
system.cpu.dcache.tags.tag_accesses         174077646                       # Number of tag accesses
system.cpu.dcache.tags.data_accesses        174077646                       # Number of data accesses
system.cpu.dcache.tags.power_state.pwrStateResidencyTicks::UNDEFINED 371571067000                       # Cumulative time (in ticks) in various power states
system.cpu.dtb.instHits                             0                       # ITB inst hits
system.cpu.dtb.instMisses                           0                       # ITB inst misses
system.cpu.dtb.readHits                             0                       # DTB read hits
system.cpu.dtb.readMisses                           0                       # DTB read misses
system.cpu.dtb.writeHits                            0                       # DTB write hits
system.cpu.dtb.writeMisses                          0                       # DTB write misses
system.cpu.dtb.inserts                              0                       # Number of times an entry is inserted into the TLB
system.cpu.dtb.flushTlb                             0                       # Number of times complete TLB was flushed
system.cpu.dtb.flushTlbMva                          0                       # Number of times TLB was flushed by MVA
system.cpu.dtb.flushTlbMvaAsid                      0                       # Number of times TLB was flushed by MVA & ASID
system.cpu.dtb.flushTlbAsid                         0                       # Number of times TLB was flushed by ASID
system.cpu.dtb.flushedEntries                       0                       # Number of entries that have been flushed from TLB
system.cpu.dtb.alignFaults                          0                       # Number of TLB faults due to alignment restrictions
system.cpu.dtb.prefetchFaults                       0                       # Number of TLB faults due to prefetch
system.cpu.dtb.domainFaults                         0                       # Number of TLB faults due to domain restrictions
system.cpu.dtb.permsFaults                          0                       # Number of TLB faults due to permissions restrictions
system.cpu.dtb.readAccesses                         0                       # DTB read accesses
system.cpu.dtb.writeAccesses                        0                       # DTB write accesses
system.cpu.dtb.instAccesses                         0                       # ITB inst accesses
system.cpu.dtb.hits                                 0                       # Total TLB (inst and data) hits
system.cpu.dtb.misses                               0                       # Total TLB (inst and data) misses
system.cpu.dtb.accesses                             0                       # Total TLB (inst and data) accesses
system.cpu.dtb.stage2_mmu.stage2_tlb.instHits            0                       # ITB inst hits
system.cpu.dtb.stage2_mmu.stage2_tlb.instMisses            0                       # ITB inst misses
system.cpu.dtb.stage2_mmu.stage2_tlb.readHits            0                       # DTB read hits
system.cpu.dtb.stage2_mmu.stage2_tlb.readMisses            0                       # DTB read misses
system.cpu.dtb.stage2_mmu.stage2_tlb.writeHits            0                       # DTB write hits
system.cpu.dtb.stage2_mmu.stage2_tlb.writeMisses            0                       # DTB write misses
system.cpu.dtb.stage2_mmu.stage2_tlb.inserts            0                       # Number of times an entry is inserted into the TLB
system.cpu.dtb.stage2_mmu.stage2_tlb.flushTlb            0                       # Number of times complete TLB was flushed
system.cpu.dtb.stage2_mmu.stage2_tlb.flushTlbMva            0                       # Number of times TLB was flushed by MVA
system.cpu.dtb.stage2_mmu.stage2_tlb.flushTlbMvaAsid            0                       # Number of times TLB was flushed by MVA & ASID
system.cpu.dtb.stage2_mmu.stage2_tlb.flushTlbAsid            0                       # Number of times TLB was flushed by ASID
system.cpu.dtb.stage2_mmu.stage2_tlb.flushedEntries            0                       # Number of entries that have been flushed from TLB
system.cpu.dtb.stage2_mmu.stage2_tlb.alignFaults            0                       # Number of TLB faults due to alignment restrictions
system.cpu.dtb.stage2_mmu.stage2_tlb.prefetchFaults            0                       # Number of TLB faults due to prefetch
system.cpu.dtb.stage2_mmu.stage2_tlb.domainFaults            0                       # Number of TLB faults due to domain restrictions
system.cpu.dtb.stage2_mmu.stage2_tlb.permsFaults            0                       # Number of TLB faults due to permissions restrictions
system.cpu.dtb.stage2_mmu.stage2_tlb.readAccesses            0                       # DTB read accesses
system.cpu.dtb.stage2_mmu.stage2_tlb.writeAccesses            0                       # DTB write accesses
system.cpu.dtb.stage2_mmu.stage2_tlb.instAccesses            0                       # ITB inst accesses
system.cpu.dtb.stage2_mmu.stage2_tlb.hits            0                       # Total TLB (inst and data) hits
system.cpu.dtb.stage2_mmu.stage2_tlb.misses            0                       # Total TLB (inst and data) misses
system.cpu.dtb.stage2_mmu.stage2_tlb.accesses            0                       # Total TLB (inst and data) accesses
system.cpu.dtb.stage2_mmu.stage2_tlb.walker.walks            0                       # Table walker walks requested
system.cpu.dtb.stage2_mmu.stage2_tlb.walker.requestOrigin_Requested::Data            0                       # Table walker requests started/completed, data/inst
system.cpu.dtb.stage2_mmu.stage2_tlb.walker.requestOrigin_Requested::Inst            0                       # Table walker requests started/completed, data/inst
system.cpu.dtb.stage2_mmu.stage2_tlb.walker.requestOrigin_Requested::total            0                       # Table walker requests started/completed, data/inst
system.cpu.dtb.stage2_mmu.stage2_tlb.walker.requestOrigin_Completed::Data            0                       # Table walker requests started/completed, data/inst
system.cpu.dtb.stage2_mmu.stage2_tlb.walker.requestOrigin_Completed::Inst            0                       # Table walker requests started/completed, data/inst
system.cpu.dtb.stage2_mmu.stage2_tlb.walker.requestOrigin_Completed::total            0                       # Table walker requests started/completed, data/inst
system.cpu.dtb.stage2_mmu.stage2_tlb.walker.requestOrigin::total            0                       # Table walker requests started/completed, data/inst
system.cpu.dtb.stage2_mmu.stage2_tlb.walker.power_state.pwrStateResidencyTicks::UNDEFINED 371571067000                       # Cumulative time (in ticks) in various power states
system.cpu.dtb.walker.walks                         0                       # Table walker walks requested
system.cpu.dtb.walker.requestOrigin_Requested::Data            0                       # Table walker requests started/completed, data/inst
system.cpu.dtb.walker.requestOrigin_Requested::Inst            0                       # Table walker requests started/completed, data/inst
system.cpu.dtb.walker.requestOrigin_Requested::total            0                       # Table walker requests started/completed, data/inst
system.cpu.dtb.walker.requestOrigin_Completed::Data            0                       # Table walker requests started/completed, data/inst
system.cpu.dtb.walker.requestOrigin_Completed::Inst            0                       # Table walker requests started/completed, data/inst
system.cpu.dtb.walker.requestOrigin_Completed::total            0                       # Table walker requests started/completed, data/inst
system.cpu.dtb.walker.requestOrigin::total            0                       # Table walker requests started/completed, data/inst
system.cpu.dtb.walker.power_state.pwrStateResidencyTicks::UNDEFINED 371571067000                       # Cumulative time (in ticks) in various power states
system.cpu.fetch2.intInstructions            45071307                       # Number of integer instructions successfully decoded
system.cpu.fetch2.fpInstructions                    0                       # Number of floating point instructions successfully decoded
system.cpu.fetch2.vecInstructions                   0                       # Number of SIMD instructions successfully decoded
system.cpu.fetch2.loadInstructions            2086484                       # Number of memory load instructions successfully decoded
system.cpu.fetch2.storeInstructions            169193                       # Number of memory store instructions successfully decoded
system.cpu.fetch2.amoInstructions                   0                       # Number of memory atomic instructions successfully decoded
system.cpu.icache.demand_hits::.cpu.inst     32004683                       # number of demand (read+write) hits
system.cpu.icache.demand_hits::total         32004683                       # number of demand (read+write) hits
system.cpu.icache.overall_hits::.cpu.inst     32004683                       # number of overall hits
system.cpu.icache.overall_hits::total        32004683                       # number of overall hits
system.cpu.icache.demand_misses::.cpu.inst          295                       # number of demand (read+write) misses
system.cpu.icache.demand_misses::total            295                       # number of demand (read+write) misses
system.cpu.icache.overall_misses::.cpu.inst          295                       # number of overall misses
system.cpu.icache.overall_misses::total           295                       # number of overall misses
system.cpu.icache.demand_miss_latency::.cpu.inst     34038000                       # number of demand (read+write) miss cycles
system.cpu.icache.demand_miss_latency::total     34038000                       # number of demand (read+write) miss cycles
system.cpu.icache.overall_miss_latency::.cpu.inst     34038000                       # number of overall miss cycles
system.cpu.icache.overall_miss_latency::total     34038000                       # number of overall miss cycles
system.cpu.icache.demand_accesses::.cpu.inst     32004978                       # number of demand (read+write) accesses
system.cpu.icache.demand_accesses::total     32004978                       # number of demand (read+write) accesses
system.cpu.icache.overall_accesses::.cpu.inst     32004978                       # number of overall (read+write) accesses
system.cpu.icache.overall_accesses::total     32004978                       # number of overall (read+write) accesses
system.cpu.icache.demand_miss_rate::.cpu.inst     0.000009                       # miss rate for demand accesses
system.cpu.icache.demand_miss_rate::total     0.000009                       # miss rate for demand accesses
system.cpu.icache.overall_miss_rate::.cpu.inst     0.000009                       # miss rate for overall accesses
system.cpu.icache.overall_miss_rate::total     0.000009                       # miss rate for overall accesses
system.cpu.icache.demand_avg_miss_latency::.cpu.inst 115383.050847                       # average overall miss latency
system.cpu.icache.demand_avg_miss_latency::total 115383.050847                       # average overall miss latency
system.cpu.icache.overall_avg_miss_latency::.cpu.inst 115383.050847                       # average overall miss latency
system.cpu.icache.overall_avg_miss_latency::total 115383.050847                       # average overall miss latency
system.cpu.icache.blocked_cycles::no_mshrs            0                       # number of cycles access was blocked
system.cpu.icache.blocked_cycles::no_targets            0                       # number of cycles access was blocked
system.cpu.icache.blocked::no_mshrs                 0                       # number of cycles access was blocked
system.cpu.icache.blocked::no_targets               0                       # number of cycles access was blocked
system.cpu.icache.avg_blocked_cycles::no_mshrs          nan                       # average number of cycles each access was blocked
system.cpu.icache.avg_blocked_cycles::no_targets          nan                       # average number of cycles each access was blocked
system.cpu.icache.writebacks::.writebacks           90                       # number of writebacks
system.cpu.icache.writebacks::total                90                       # number of writebacks
system.cpu.icache.demand_mshr_misses::.cpu.inst          295                       # number of demand (read+write) MSHR misses
system.cpu.icache.demand_mshr_misses::total          295                       # number of demand (read+write) MSHR misses
system.cpu.icache.overall_mshr_misses::.cpu.inst          295                       # number of overall MSHR misses
system.cpu.icache.overall_mshr_misses::total          295                       # number of overall MSHR misses
system.cpu.icache.demand_mshr_miss_latency::.cpu.inst     33448000                       # number of demand (read+write) MSHR miss cycles
system.cpu.icache.demand_mshr_miss_latency::total     33448000                       # number of demand (read+write) MSHR miss cycles
system.cpu.icache.overall_mshr_miss_latency::.cpu.inst     33448000                       # number of overall MSHR miss cycles
system.cpu.icache.overall_mshr_miss_latency::total     33448000                       # number of overall MSHR miss cycles
system.cpu.icache.demand_mshr_miss_rate::.cpu.inst     0.000009                       # mshr miss rate for demand accesses
system.cpu.icache.demand_mshr_miss_rate::total     0.000009                       # mshr miss rate for demand accesses
system.cpu.icache.overall_mshr_miss_rate::.cpu.inst     0.000009                       # mshr miss rate for overall accesses
system.cpu.icache.overall_mshr_miss_rate::total     0.000009                       # mshr miss rate for overall accesses
system.cpu.icache.demand_avg_mshr_miss_latency::.cpu.inst 113383.050847                       # average overall mshr miss latency
system.cpu.icache.demand_avg_mshr_miss_latency::total 113383.050847                       # average overall mshr miss latency
system.cpu.icache.overall_avg_mshr_miss_latency::.cpu.inst 113383.050847                       # average overall mshr miss latency
system.cpu.icache.overall_avg_mshr_miss_latency::total 113383.050847                       # average overall mshr miss latency
system.cpu.icache.replacements                     90                       # number of replacements
system.cpu.icache.ReadReq_hits::.cpu.inst     32004683                       # number of ReadReq hits
system.cpu.icache.ReadReq_hits::total        32004683                       # number of ReadReq hits
system.cpu.icache.ReadReq_misses::.cpu.inst          295                       # number of ReadReq misses
system.cpu.icache.ReadReq_misses::total           295                       # number of ReadReq misses
system.cpu.icache.ReadReq_miss_latency::.cpu.inst     34038000                       # number of ReadReq miss cycles
system.cpu.icache.ReadReq_miss_latency::total     34038000                       # number of ReadReq miss cycles
system.cpu.icache.ReadReq_accesses::.cpu.inst     32004978                       # number of ReadReq accesses(hits+misses)
system.cpu.icache.ReadReq_accesses::total     32004978                       # number of ReadReq accesses(hits+misses)
system.cpu.icache.ReadReq_miss_rate::.cpu.inst     0.000009                       # miss rate for ReadReq accesses
system.cpu.icache.ReadReq_miss_rate::total     0.000009                       # miss rate for ReadReq accesses
system.cpu.icache.ReadReq_avg_miss_latency::.cpu.inst 115383.050847                       # average ReadReq miss latency
system.cpu.icache.ReadReq_avg_miss_latency::total 115383.050847                       # average ReadReq miss latency
system.cpu.icache.ReadReq_mshr_misses::.cpu.inst          295                       # number of ReadReq MSHR misses
system.cpu.icache.ReadReq_mshr_misses::total          295                       # number of ReadReq MSHR misses
system.cpu.icache.ReadReq_mshr_miss_latency::.cpu.inst     33448000                       # number of ReadReq MSHR miss cycles
system.cpu.icache.ReadReq_mshr_miss_latency::total     33448000                       # number of ReadReq MSHR miss cycles
system.cpu.icache.ReadReq_mshr_miss_rate::.cpu.inst     0.000009                       # mshr miss rate for ReadReq accesses
system.cpu.icache.ReadReq_mshr_miss_rate::total     0.000009                       # mshr miss rate for ReadReq accesses
system.cpu.icache.ReadReq_avg_mshr_miss_latency::.cpu.inst 113383.050847                       # average ReadReq mshr miss latency
system.cpu.icache.ReadReq_avg_mshr_miss_latency::total 113383.050847                       # average ReadReq mshr miss latency
system.cpu.icache.power_state.pwrStateResidencyTicks::UNDEFINED 371571067000                       # Cumulative time (in ticks) in various power states
system.cpu.icache.tags.tagsinuse           184.192334                       # Cycle average of tags in use
system.cpu.icache.tags.total_refs            32004978                       # Total number of references to valid blocks.
system.cpu.icache.tags.sampled_refs               295                       # Sample count of references to valid blocks.
system.cpu.icache.tags.avg_refs          108491.450847                       # Average number of references to valid blocks.
system.cpu.icache.tags.warmup_cycle            123000                       # Cycle when the warmup percentage was hit.
system.cpu.icache.tags.occ_blocks::.cpu.inst   184.192334                       # Average occupied blocks per requestor
system.cpu.icache.tags.occ_percent::.cpu.inst     0.719501                       # Average percentage of cache occupancy
system.cpu.icache.tags.occ_percent::total     0.719501                       # Average percentage of cache occupancy
system.cpu.icache.tags.occ_task_id_blocks::1024          205                       # Occupied blocks per task id
system.cpu.icache.tags.age_task_id_blocks_1024::4          205                       # Occupied blocks per task id
system.cpu.icache.tags.occ_task_id_percent::1024     0.800781                       # Percentage of cache occupancy per task id
system.cpu.icache.tags.tag_accesses          64010251                       # Number of tag accesses
system.cpu.icache.tags.data_accesses         64010251                       # Number of data accesses
system.cpu.icache.tags.power_state.pwrStateResidencyTicks::UNDEFINED 371571067000                       # Cumulative time (in ticks) in various power states
system.cpu.itb.instHits                             0                       # ITB inst hits
system.cpu.itb.instMisses                           0                       # ITB inst misses
system.cpu.itb.readHits                             0                       # DTB read hits
system.cpu.itb.readMisses                           0                       # DTB read misses
system.cpu.itb.writeHits                            0                       # DTB write hits
system.cpu.itb.writeMisses                          0                       # DTB write misses
system.cpu.itb.inserts                              0                       # Number of times an entry is inserted into the TLB
system.cpu.itb.flushTlb                             0                       # Number of times complete TLB was flushed
system.cpu.itb.flushTlbMva                          0                       # Number of times TLB was flushed by MVA
system.cpu.itb.flushTlbMvaAsid                      0                       # Number of times TLB was flushed by MVA & ASID
system.cpu.itb.flushTlbAsid                         0                       # Number of times TLB was flushed by ASID
system.cpu.itb.flushedEntries                       0                       # Number of entries that have been flushed from TLB
system.cpu.itb.alignFaults                          0                       # Number of TLB faults due to alignment restrictions
system.cpu.itb.prefetchFaults                       0                       # Number of TLB faults due to prefetch
system.cpu.itb.domainFaults                         0                       # Number of TLB faults due to domain restrictions
system.cpu.itb.permsFaults                          0                       # Number of TLB faults due to permissions restrictions
system.cpu.itb.readAccesses                         0                       # DTB read accesses
system.cpu.itb.writeAccesses                        0                       # DTB write accesses
system.cpu.itb.instAccesses                         0                       # ITB inst accesses
system.cpu.itb.hits                                 0                       # Total TLB (inst and data) hits
system.cpu.itb.misses                               0                       # Total TLB (inst and data) misses
system.cpu.itb.accesses                             0                       # Total TLB (inst and data) accesses
system.cpu.itb.stage2_mmu.stage2_tlb.instHits            0                       # ITB inst hits
system.cpu.itb.stage2_mmu.stage2_tlb.instMisses            0                       # ITB inst misses
system.cpu.itb.stage2_mmu.stage2_tlb.readHits            0                       # DTB read hits
system.cpu.itb.stage2_mmu.stage2_tlb.readMisses            0                       # DTB read misses
system.cpu.itb.stage2_mmu.stage2_tlb.writeHits            0                       # DTB write hits
system.cpu.itb.stage2_mmu.stage2_tlb.writeMisses            0                       # DTB write misses
system.cpu.itb.stage2_mmu.stage2_tlb.inserts            0                       # Number of times an entry is inserted into the TLB
system.cpu.itb.stage2_mmu.stage2_tlb.flushTlb            0                       # Number of times complete TLB was flushed
system.cpu.itb.stage2_mmu.stage2_tlb.flushTlbMva            0                       # Number of times TLB was flushed by MVA
system.cpu.itb.stage2_mmu.stage2_tlb.flushTlbMvaAsid            0                       # Number of times TLB was flushed by MVA & ASID
system.cpu.itb.stage2_mmu.stage2_tlb.flushTlbAsid            0                       # Number of times TLB was flushed by ASID
system.cpu.itb.stage2_mmu.stage2_tlb.flushedEntries            0                       # Number of entries that have been flushed from TLB
system.cpu.itb.stage2_mmu.stage2_tlb.alignFaults            0                       # Number of TLB faults due to alignment restrictions
system.cpu.itb.stage2_mmu.stage2_tlb.prefetchFaults            0                       # Number of TLB faults due to prefetch
system.cpu.itb.stage2_mmu.stage2_tlb.domainFaults            0                       # Number of TLB faults due to domain restrictions
system.cpu.itb.stage2_mmu.stage2_tlb.permsFaults            0                       # Number of TLB faults due to permissions restrictions
system.cpu.itb.stage2_mmu.stage2_tlb.readAccesses            0                       # DTB read accesses
system.cpu.itb.stage2_mmu.stage2_tlb.writeAccesses            0                       # DTB write accesses
system.cpu.itb.stage2_mmu.stage2_tlb.instAccesses            0                       # ITB inst accesses
system.cpu.itb.stage2_mmu.stage2_tlb.hits            0                       # Total TLB (inst and data) hits
system.cpu.itb.stage2_mmu.stage2_tlb.misses            0                       # Total TLB (inst and data) misses
system.cpu.itb.stage2_mmu.stage2_tlb.accesses            0                       # Total TLB (inst and data) accesses
system.cpu.itb.stage2_mmu.stage2_tlb.walker.walks            0                       # Table walker walks requested
system.cpu.itb.stage2_mmu.stage2_tlb.walker.requestOrigin_Requested::Data            0                       # Table walker requests started/completed, data/inst
system.cpu.itb.stage2_mmu.stage2_tlb.walker.requestOrigin_Requested::Inst            0                       # Table walker requests started/completed, data/inst
system.cpu.itb.stage2_mmu.stage2_tlb.walker.requestOrigin_Requested::total            0                       # Table walker requests started/completed, data/inst
system.cpu.itb.stage2_mmu.stage2_tlb.walker.requestOrigin_Completed::Data            0                       # Table walker requests started/completed, data/inst
system.cpu.itb.stage2_mmu.stage2_tlb.walker.requestOrigin_Completed::Inst            0                       # Table walker requests started/completed, data/inst
system.cpu.itb.stage2_mmu.stage2_tlb.walker.requestOrigin_Completed::total            0                       # Table walker requests started/completed, data/inst
system.cpu.itb.stage2_mmu.stage2_tlb.walker.requestOrigin::total            0                       # Table walker requests started/completed, data/inst
system.cpu.itb.stage2_mmu.stage2_tlb.walker.power_state.pwrStateResidencyTicks::UNDEFINED 371571067000                       # Cumulative time (in ticks) in various power states
system.cpu.itb.walker.walks                         0                       # Table walker walks requested
system.cpu.itb.walker.requestOrigin_Requested::Data            0                       # Table walker requests started/completed, data/inst
system.cpu.itb.walker.requestOrigin_Requested::Inst            0                       # Table walker requests started/completed, data/inst
system.cpu.itb.walker.requestOrigin_Requested::total            0                       # Table walker requests started/completed, data/inst
system.cpu.itb.walker.requestOrigin_Completed::Data            0                       # Table walker requests started/completed, data/inst
system.cpu.itb.walker.requestOrigin_Completed::Inst            0                       # Table walker requests started/completed, data/inst
system.cpu.itb.walker.requestOrigin_Completed::total            0                       # Table walker requests started/completed, data/inst
system.cpu.itb.walker.requestOrigin::total            0                       # Table walker requests started/completed, data/inst
system.cpu.itb.walker.power_state.pwrStateResidencyTicks::UNDEFINED 371571067000                       # Cumulative time (in ticks) in various power states
system.cpu.power_state.pwrStateResidencyTicks::ON 371571067000                       # Cumulative time (in ticks) in various power states
system.cpu.thread17522.numInsts             100000000                       # Number of Instructions committed
system.cpu.thread17522.numOps               184218810                       # Number of Ops committed
system.cpu.thread17522.numMemRefs                   0                       # Number of Memory References
system.cpu_clk_domain.clock                      1000                       # Clock period in ticks
system.cpu_voltage_domain.voltage                   1                       # Voltage in Volts
system.l2.demand_hits::.cpu.inst                   30                       # number of demand (read+write) hits
system.l2.demand_hits::.cpu.data                   50                       # number of demand (read+write) hits
system.l2.demand_hits::total                       80                       # number of demand (read+write) hits
system.l2.overall_hits::.cpu.inst                  30                       # number of overall hits
system.l2.overall_hits::.cpu.data                  50                       # number of overall hits
system.l2.overall_hits::total                      80                       # number of overall hits
system.l2.demand_misses::.cpu.inst                265                       # number of demand (read+write) misses
system.l2.demand_misses::.cpu.data            1316034                       # number of demand (read+write) misses
system.l2.demand_misses::total                1316299                       # number of demand (read+write) misses
system.l2.overall_misses::.cpu.inst               265                       # number of overall misses
system.l2.overall_misses::.cpu.data           1316034                       # number of overall misses
system.l2.overall_misses::total               1316299                       # number of overall misses
system.l2.demand_miss_latency::.cpu.inst     31699000                       # number of demand (read+write) miss cycles
system.l2.demand_miss_latency::.cpu.data 164168526000                       # number of demand (read+write) miss cycles
system.l2.demand_miss_latency::total     164200225000                       # number of demand (read+write) miss cycles
system.l2.overall_miss_latency::.cpu.inst     31699000                       # number of overall miss cycles
system.l2.overall_miss_latency::.cpu.data 164168526000                       # number of overall miss cycles
system.l2.overall_miss_latency::total    164200225000                       # number of overall miss cycles
system.l2.demand_accesses::.cpu.inst              295                       # number of demand (read+write) accesses
system.l2.demand_accesses::.cpu.data          1316084                       # number of demand (read+write) accesses
system.l2.demand_accesses::total              1316379                       # number of demand (read+write) accesses
system.l2.overall_accesses::.cpu.inst             295                       # number of overall (read+write) accesses
system.l2.overall_accesses::.cpu.data         1316084                       # number of overall (read+write) accesses
system.l2.overall_accesses::total             1316379                       # number of overall (read+write) accesses
system.l2.demand_miss_rate::.cpu.inst        0.898305                       # miss rate for demand accesses
system.l2.demand_miss_rate::.cpu.data        0.999962                       # miss rate for demand accesses
system.l2.demand_miss_rate::total            0.999939                       # miss rate for demand accesses
system.l2.overall_miss_rate::.cpu.inst       0.898305                       # miss rate for overall accesses
system.l2.overall_miss_rate::.cpu.data       0.999962                       # miss rate for overall accesses
system.l2.overall_miss_rate::total           0.999939                       # miss rate for overall accesses
system.l2.demand_avg_miss_latency::.cpu.inst 119618.867925                       # average overall miss latency
system.l2.demand_avg_miss_latency::.cpu.data 124744.897168                       # average overall miss latency
system.l2.demand_avg_miss_latency::total 124743.865186                       # average overall miss latency
system.l2.overall_avg_miss_latency::.cpu.inst 119618.867925                       # average overall miss latency
system.l2.overall_avg_miss_latency::.cpu.data 124744.897168                       # average overall miss latency
system.l2.overall_avg_miss_latency::total 124743.865186                       # average overall miss latency
system.l2.blocked_cycles::no_mshrs                  0                       # number of cycles access was blocked
system.l2.blocked_cycles::no_targets                0                       # number of cycles access was blocked
system.l2.blocked::no_mshrs                         0                       # number of cycles access was blocked
system.l2.blocked::no_targets                       0                       # number of cycles access was blocked
system.l2.avg_blocked_cycles::no_mshrs            nan                       # average number of cycles each access was blocked
system.l2.avg_blocked_cycles::no_targets          nan                       # average number of cycles each access was blocked
system.l2.writebacks::.writebacks             1313847                       # number of writebacks
system.l2.writebacks::total                   1313847                       # number of writebacks
system.l2.demand_mshr_hits::.cpu.inst               1                       # number of demand (read+write) MSHR hits
system.l2.demand_mshr_hits::.cpu.data               8                       # number of demand (read+write) MSHR hits
system.l2.demand_mshr_hits::total                   9                       # number of demand (read+write) MSHR hits
system.l2.overall_mshr_hits::.cpu.inst              1                       # number of overall MSHR hits
system.l2.overall_mshr_hits::.cpu.data              8                       # number of overall MSHR hits
system.l2.overall_mshr_hits::total                  9                       # number of overall MSHR hits
system.l2.demand_mshr_misses::.cpu.inst           264                       # number of demand (read+write) MSHR misses
system.l2.demand_mshr_misses::.cpu.data       1316026                       # number of demand (read+write) MSHR misses
system.l2.demand_mshr_misses::total           1316290                       # number of demand (read+write) MSHR misses
system.l2.overall_mshr_misses::.cpu.inst          264                       # number of overall MSHR misses
system.l2.overall_mshr_misses::.cpu.data      1316026                       # number of overall MSHR misses
system.l2.overall_mshr_misses::total          1316290                       # number of overall MSHR misses
system.l2.demand_mshr_miss_latency::.cpu.inst     26237000                       # number of demand (read+write) MSHR miss cycles
system.l2.demand_mshr_miss_latency::.cpu.data 137847199000                       # number of demand (read+write) MSHR miss cycles
system.l2.demand_mshr_miss_latency::total 137873436000                       # number of demand (read+write) MSHR miss cycles
system.l2.overall_mshr_miss_latency::.cpu.inst     26237000                       # number of overall MSHR miss cycles
system.l2.overall_mshr_miss_latency::.cpu.data 137847199000                       # number of overall MSHR miss cycles
system.l2.overall_mshr_miss_latency::total 137873436000                       # number of overall MSHR miss cycles
system.l2.demand_mshr_miss_rate::.cpu.inst     0.894915                       # mshr miss rate for demand accesses
system.l2.demand_mshr_miss_rate::.cpu.data     0.999956                       # mshr miss rate for demand accesses
system.l2.demand_mshr_miss_rate::total       0.999932                       # mshr miss rate for demand accesses
system.l2.overall_mshr_miss_rate::.cpu.inst     0.894915                       # mshr miss rate for overall accesses
system.l2.overall_mshr_miss_rate::.cpu.data     0.999956                       # mshr miss rate for overall accesses
system.l2.overall_mshr_miss_rate::total      0.999932                       # mshr miss rate for overall accesses
system.l2.demand_avg_mshr_miss_latency::.cpu.inst 99382.575758                       # average overall mshr miss latency
system.l2.demand_avg_mshr_miss_latency::.cpu.data 104745.042271                       # average overall mshr miss latency
system.l2.demand_avg_mshr_miss_latency::total 104743.966755                       # average overall mshr miss latency
system.l2.overall_avg_mshr_miss_latency::.cpu.inst 99382.575758                       # average overall mshr miss latency
system.l2.overall_avg_mshr_miss_latency::.cpu.data 104745.042271                       # average overall mshr miss latency
system.l2.overall_avg_mshr_miss_latency::total 104743.966755                       # average overall mshr miss latency
system.l2.replacements                        1314276                       # number of replacements
system.l2.WritebackDirty_hits::.writebacks      1315661                       # number of WritebackDirty hits
system.l2.WritebackDirty_hits::total          1315661                       # number of WritebackDirty hits
system.l2.WritebackDirty_accesses::.writebacks      1315661                       # number of WritebackDirty accesses(hits+misses)
system.l2.WritebackDirty_accesses::total      1315661                       # number of WritebackDirty accesses(hits+misses)
system.l2.WritebackClean_hits::.writebacks           85                       # number of WritebackClean hits
system.l2.WritebackClean_hits::total               85                       # number of WritebackClean hits
system.l2.WritebackClean_accesses::.writebacks           85                       # number of WritebackClean accesses(hits+misses)
system.l2.WritebackClean_accesses::total           85                       # number of WritebackClean accesses(hits+misses)
system.l2.ReadExReq_hits::.cpu.data                11                       # number of ReadExReq hits
system.l2.ReadExReq_hits::total                    11                       # number of ReadExReq hits
system.l2.ReadExReq_misses::.cpu.data         1315875                       # number of ReadExReq misses
system.l2.ReadExReq_misses::total             1315875                       # number of ReadExReq misses
system.l2.ReadExReq_miss_latency::.cpu.data 164147758000                       # number of ReadExReq miss cycles
system.l2.ReadExReq_miss_latency::total  164147758000                       # number of ReadExReq miss cycles
system.l2.ReadExReq_accesses::.cpu.data       1315886                       # number of ReadExReq accesses(hits+misses)
system.l2.ReadExReq_accesses::total           1315886                       # number of ReadExReq accesses(hits+misses)
system.l2.ReadExReq_miss_rate::.cpu.data     0.999992                       # miss rate for ReadExReq accesses
system.l2.ReadExReq_miss_rate::total         0.999992                       # miss rate for ReadExReq accesses
system.l2.ReadExReq_avg_miss_latency::.cpu.data 124744.187708                       # average ReadExReq miss latency
system.l2.ReadExReq_avg_miss_latency::total 124744.187708                       # average ReadExReq miss latency
system.l2.ReadExReq_mshr_misses::.cpu.data      1315875                       # number of ReadExReq MSHR misses
system.l2.ReadExReq_mshr_misses::total        1315875                       # number of ReadExReq MSHR misses
system.l2.ReadExReq_mshr_miss_latency::.cpu.data 137830258000                       # number of ReadExReq MSHR miss cycles
system.l2.ReadExReq_mshr_miss_latency::total 137830258000                       # number of ReadExReq MSHR miss cycles
system.l2.ReadExReq_mshr_miss_rate::.cpu.data     0.999992                       # mshr miss rate for ReadExReq accesses
system.l2.ReadExReq_mshr_miss_rate::total     0.999992                       # mshr miss rate for ReadExReq accesses
system.l2.ReadExReq_avg_mshr_miss_latency::.cpu.data 104744.187708                       # average ReadExReq mshr miss latency
system.l2.ReadExReq_avg_mshr_miss_latency::total 104744.187708                       # average ReadExReq mshr miss latency
system.l2.ReadCleanReq_hits::.cpu.inst             30                       # number of ReadCleanReq hits
system.l2.ReadCleanReq_hits::total                 30                       # number of ReadCleanReq hits
system.l2.ReadCleanReq_misses::.cpu.inst          265                       # number of ReadCleanReq misses
system.l2.ReadCleanReq_misses::total              265                       # number of ReadCleanReq misses
system.l2.ReadCleanReq_miss_latency::.cpu.inst     31699000                       # number of ReadCleanReq miss cycles
system.l2.ReadCleanReq_miss_latency::total     31699000                       # number of ReadCleanReq miss cycles
system.l2.ReadCleanReq_accesses::.cpu.inst          295                       # number of ReadCleanReq accesses(hits+misses)
system.l2.ReadCleanReq_accesses::total            295                       # number of ReadCleanReq accesses(hits+misses)
system.l2.ReadCleanReq_miss_rate::.cpu.inst     0.898305                       # miss rate for ReadCleanReq accesses
system.l2.ReadCleanReq_miss_rate::total      0.898305                       # miss rate for ReadCleanReq accesses
system.l2.ReadCleanReq_avg_miss_latency::.cpu.inst 119618.867925                       # average ReadCleanReq miss latency
system.l2.ReadCleanReq_avg_miss_latency::total 119618.867925                       # average ReadCleanReq miss latency
system.l2.ReadCleanReq_mshr_hits::.cpu.inst            1                       # number of ReadCleanReq MSHR hits
system.l2.ReadCleanReq_mshr_hits::total             1                       # number of ReadCleanReq MSHR hits
system.l2.ReadCleanReq_mshr_misses::.cpu.inst          264                       # number of ReadCleanReq MSHR misses
system.l2.ReadCleanReq_mshr_misses::total          264                       # number of ReadCleanReq MSHR misses
system.l2.ReadCleanReq_mshr_miss_latency::.cpu.inst     26237000                       # number of ReadCleanReq MSHR miss cycles
system.l2.ReadCleanReq_mshr_miss_latency::total     26237000                       # number of ReadCleanReq MSHR miss cycles
system.l2.ReadCleanReq_mshr_miss_rate::.cpu.inst     0.894915                       # mshr miss rate for ReadCleanReq accesses
system.l2.ReadCleanReq_mshr_miss_rate::total     0.894915                       # mshr miss rate for ReadCleanReq accesses
system.l2.ReadCleanReq_avg_mshr_miss_latency::.cpu.inst 99382.575758                       # average ReadCleanReq mshr miss latency
system.l2.ReadCleanReq_avg_mshr_miss_latency::total 99382.575758                       # average ReadCleanReq mshr miss latency
system.l2.ReadSharedReq_hits::.cpu.data            39                       # number of ReadSharedReq hits
system.l2.ReadSharedReq_hits::total                39                       # number of ReadSharedReq hits
system.l2.ReadSharedReq_misses::.cpu.data          159                       # number of ReadSharedReq misses
system.l2.ReadSharedReq_misses::total             159                       # number of ReadSharedReq misses
system.l2.ReadSharedReq_miss_latency::.cpu.data     20768000                       # number of ReadSharedReq miss cycles
system.l2.ReadSharedReq_miss_latency::total     20768000                       # number of ReadSharedReq miss cycles
system.l2.ReadSharedReq_accesses::.cpu.data          198                       # number of ReadSharedReq accesses(hits+misses)
system.l2.ReadSharedReq_accesses::total           198                       # number of ReadSharedReq accesses(hits+misses)
system.l2.ReadSharedReq_miss_rate::.cpu.data     0.803030                       # miss rate for ReadSharedReq accesses
system.l2.ReadSharedReq_miss_rate::total     0.803030                       # miss rate for ReadSharedReq accesses
system.l2.ReadSharedReq_avg_miss_latency::.cpu.data 130616.352201                       # average ReadSharedReq miss latency
system.l2.ReadSharedReq_avg_miss_latency::total 130616.352201                       # average ReadSharedReq miss latency
system.l2.ReadSharedReq_mshr_hits::.cpu.data            8                       # number of ReadSharedReq MSHR hits
system.l2.ReadSharedReq_mshr_hits::total            8                       # number of ReadSharedReq MSHR hits
system.l2.ReadSharedReq_mshr_misses::.cpu.data          151                       # number of ReadSharedReq MSHR misses
system.l2.ReadSharedReq_mshr_misses::total          151                       # number of ReadSharedReq MSHR misses
system.l2.ReadSharedReq_mshr_miss_latency::.cpu.data     16941000                       # number of ReadSharedReq MSHR miss cycles
system.l2.ReadSharedReq_mshr_miss_latency::total     16941000                       # number of ReadSharedReq MSHR miss cycles
system.l2.ReadSharedReq_mshr_miss_rate::.cpu.data     0.762626                       # mshr miss rate for ReadSharedReq accesses
system.l2.ReadSharedReq_mshr_miss_rate::total     0.762626                       # mshr miss rate for ReadSharedReq accesses
system.l2.ReadSharedReq_avg_mshr_miss_latency::.cpu.data 112192.052980                       # average ReadSharedReq mshr miss latency
system.l2.ReadSharedReq_avg_mshr_miss_latency::total 112192.052980                       # average ReadSharedReq mshr miss latency
system.l2.power_state.pwrStateResidencyTicks::UNDEFINED 371571067000                       # Cumulative time (in ticks) in various power states
system.l2.tags.tagsinuse                  2027.089982                       # Cycle average of tags in use
system.l2.tags.total_refs                     2632232                       # Total number of references to valid blocks.
system.l2.tags.sampled_refs                   1316324                       # Sample count of references to valid blocks.
system.l2.tags.avg_refs                      1.999684                       # Average number of references to valid blocks.
system.l2.tags.warmup_cycle                    102000                       # Cycle when the warmup percentage was hit.
system.l2.tags.occ_blocks::.writebacks       0.043788                       # Average occupied blocks per requestor
system.l2.tags.occ_blocks::.cpu.inst         3.000855                       # Average occupied blocks per requestor
system.l2.tags.occ_blocks::.cpu.data      2024.045339                       # Average occupied blocks per requestor
system.l2.tags.occ_percent::.writebacks      0.000021                       # Average percentage of cache occupancy
system.l2.tags.occ_percent::.cpu.inst        0.001465                       # Average percentage of cache occupancy
system.l2.tags.occ_percent::.cpu.data        0.988303                       # Average percentage of cache occupancy
system.l2.tags.occ_percent::total            0.989790                       # Average percentage of cache occupancy
system.l2.tags.occ_task_id_blocks::1024          2048                       # Occupied blocks per task id
system.l2.tags.age_task_id_blocks_1024::0           36                       # Occupied blocks per task id
system.l2.tags.age_task_id_blocks_1024::1          323                       # Occupied blocks per task id
system.l2.tags.age_task_id_blocks_1024::2         1689                       # Occupied blocks per task id
system.l2.tags.occ_task_id_percent::1024            1                       # Percentage of cache occupancy per task id
system.l2.tags.tag_accesses                  22374252                       # Number of tag accesses
system.l2.tags.data_accesses                 22374252                       # Number of data accesses
system.l2.tags.power_state.pwrStateResidencyTicks::UNDEFINED 371571067000                       # Cumulative time (in ticks) in various power states
system.mem_ctrls.avgPriority_.writebacks::samples   5255388.00                       # Average QoS priority value for accepted requests
system.mem_ctrls.avgPriority_.cpu.inst::samples      1056.00                       # Average QoS priority value for accepted requests
system.mem_ctrls.avgPriority_.cpu.data::samples   5264104.00                       # Average QoS priority value for accepted requests
system.mem_ctrls.priorityMinLatency      0.000000018750                       # per QoS priority minimum request to response latency (s)
system.mem_ctrls.priorityMaxLatency      0.000182172750                       # per QoS priority maximum request to response latency (s)
system.mem_ctrls.numReadWriteTurnArounds       263939                       # Number of turnarounds from READ to WRITE
system.mem_ctrls.numWriteReadTurnArounds       263939                       # Number of turnarounds from WRITE to READ
system.mem_ctrls.numStayReadState             7969827                       # Number of times bus staying in READ state
system.mem_ctrls.numStayWriteState            5010931                       # Number of times bus staying in WRITE state
system.mem_ctrls.readReqs                     1316290                       # Number of read requests accepted
system.mem_ctrls.writeReqs                    1313847                       # Number of write requests accepted
system.mem_ctrls.readBursts                   5265160                       # Number of controller read bursts, including those serviced by the write queue
system.mem_ctrls.writeBursts                  5255388                       # Number of controller write bursts, including those merged in the write queue
system.mem_ctrls.servicedByWrQ                      0                       # Number of controller read bursts serviced by the write queue
system.mem_ctrls.mergedWrBursts                     0                       # Number of controller write bursts merged with an existing one
system.mem_ctrls.neitherReadNorWriteReqs            0                       # Number of requests that are neither read nor write
system.mem_ctrls.avgRdQLen                       4.01                       # Average read queue length when enqueuing
system.mem_ctrls.avgWrQLen                      26.93                       # Average write queue length when enqueuing
system.mem_ctrls.numRdRetry                         0                       # Number of times read queue was full causing retry
system.mem_ctrls.numWrRetry                         0                       # Number of times write queue was full causing retry
system.mem_ctrls.readPktSize::0                     0                       # Read request sizes (log2)
system.mem_ctrls.readPktSize::1                     0                       # Read request sizes (log2)
system.mem_ctrls.readPktSize::2                     0                       # Read request sizes (log2)
system.mem_ctrls.readPktSize::3                     0                       # Read request sizes (log2)
system.mem_ctrls.readPktSize::4                     0                       # Read request sizes (log2)
system.mem_ctrls.readPktSize::5                     0                       # Read request sizes (log2)
system.mem_ctrls.readPktSize::6               5265160                       # Read request sizes (log2)
system.mem_ctrls.readPktSize::7                     0                       # Read request sizes (log2)
system.mem_ctrls.readPktSize::8                     0                       # Read request sizes (log2)
system.mem_ctrls.writePktSize::0                    0                       # Write request sizes (log2)
system.mem_ctrls.writePktSize::1                    0                       # Write request sizes (log2)
system.mem_ctrls.writePktSize::2                    0                       # Write request sizes (log2)
system.mem_ctrls.writePktSize::3                    0                       # Write request sizes (log2)
system.mem_ctrls.writePktSize::4                    0                       # Write request sizes (log2)
system.mem_ctrls.writePktSize::5                    0                       # Write request sizes (log2)
system.mem_ctrls.writePktSize::6              5255388                       # Write request sizes (log2)
system.mem_ctrls.writePktSize::7                    0                       # Write request sizes (log2)
system.mem_ctrls.writePktSize::8                    0                       # Write request sizes (log2)
system.mem_ctrls.rdQLenPdf::0                 1316058                       # What read queue length does an incoming req see
system.mem_ctrls.rdQLenPdf::1                 1316059                       # What read queue length does an incoming req see
system.mem_ctrls.rdQLenPdf::2                 1316157                       # What read queue length does an incoming req see
system.mem_ctrls.rdQLenPdf::3                 1316160                       # What read queue length does an incoming req see
system.mem_ctrls.rdQLenPdf::4                     228                       # What read queue length does an incoming req see
system.mem_ctrls.rdQLenPdf::5                     227                       # What read queue length does an incoming req see
system.mem_ctrls.rdQLenPdf::6                     129                       # What read queue length does an incoming req see
system.mem_ctrls.rdQLenPdf::7                     126                       # What read queue length does an incoming req see
system.mem_ctrls.rdQLenPdf::8                       4                       # What read queue length does an incoming req see
[...]
system.mem_ctrls.dram.bw_write::.writebacks    905196507                       # Write bandwidth from this memory (bytes/s)
system.mem_ctrls.dram.bw_write::total       905196507                       # Write bandwidth from this memory (bytes/s)
system.mem_ctrls.dram.bw_total::.writebacks    905196507                       # Total bandwidth to/from this memory (bytes/s)
system.mem_ctrls.dram.bw_total::.cpu.inst       181887                       # Total bandwidth to/from this memory (bytes/s)
system.mem_ctrls.dram.bw_total::.cpu.data    906697765                       # Total bandwidth to/from this memory (bytes/s)
system.mem_ctrls.dram.bw_total::total      1812076159                       # Total bandwidth to/from this memory (bytes/s)
system.mem_ctrls.dram.readBursts              5265160                       # Number of DRAM read bursts
system.mem_ctrls.dram.writeBursts             5255357                       # Number of DRAM write bursts
system.mem_ctrls.dram.perBankRdBursts::0       328996                       # Per bank write bursts
system.mem_ctrls.dram.perBankRdBursts::1       329212                       # Per bank write bursts
system.mem_ctrls.dram.perBankRdBursts::2       329192                       # Per bank write bursts
system.mem_ctrls.dram.perBankRdBursts::3       329144                       # Per bank write bursts
system.mem_ctrls.dram.perBankRdBursts::4       329064                       # Per bank write bursts
system.mem_ctrls.dram.perBankRdBursts::5       329144                       # Per bank write bursts
system.mem_ctrls.dram.perBankRdBursts::6       329156                       # Per bank write bursts
system.mem_ctrls.dram.perBankRdBursts::7       329084                       # Per bank write bursts
system.mem_ctrls.dram.perBankRdBursts::8       328928                       # Per bank write bursts
system.mem_ctrls.dram.perBankRdBursts::9       328916                       # Per bank write bursts
system.mem_ctrls.dram.perBankRdBursts::10       328952                       # Per bank write bursts
system.mem_ctrls.dram.perBankRdBursts::11       328976                       # Per bank write bursts
system.mem_ctrls.dram.perBankRdBursts::12       329156                       # Per bank write bursts
system.mem_ctrls.dram.perBankRdBursts::13       329120                       # Per bank write bursts
system.mem_ctrls.dram.perBankRdBursts::14       329108                       # Per bank write bursts
system.mem_ctrls.dram.perBankRdBursts::15       329012                       # Per bank write bursts
system.mem_ctrls.dram.perBankWrBursts::0       328360                       # Per bank write bursts
system.mem_ctrls.dram.perBankWrBursts::1       328540                       # Per bank write bursts
system.mem_ctrls.dram.perBankWrBursts::2       328537                       # Per bank write bursts
system.mem_ctrls.dram.perBankWrBursts::3       328592                       # Per bank write bursts
system.mem_ctrls.dram.perBankWrBursts::4       328500                       # Per bank write bursts
system.mem_ctrls.dram.perBankWrBursts::5       328556                       # Per bank write bursts
system.mem_ctrls.dram.perBankWrBursts::6       328552                       # Per bank write bursts
system.mem_ctrls.dram.perBankWrBursts::7       328532                       # Per bank write bursts
system.mem_ctrls.dram.perBankWrBursts::8       328324                       # Per bank write bursts
system.mem_ctrls.dram.perBankWrBursts::9       328320                       # Per bank write bursts
system.mem_ctrls.dram.perBankWrBursts::10       328320                       # Per bank write bursts
system.mem_ctrls.dram.perBankWrBursts::11       328396                       # Per bank write bursts
system.mem_ctrls.dram.perBankWrBursts::12       328484                       # Per bank write bursts
system.mem_ctrls.dram.perBankWrBursts::13       328476                       # Per bank write bursts
system.mem_ctrls.dram.perBankWrBursts::14       328428                       # Per bank write bursts
system.mem_ctrls.dram.perBankWrBursts::15       328440                       # Per bank write bursts
system.mem_ctrls.dram.totQLat            143087533500                       # Total ticks spent queuing
system.mem_ctrls.dram.totBusLat           26325800000                       # Total ticks spent in databus transfers
system.mem_ctrls.dram.totMemAccLat       241809283500                       # Total ticks spent from burst creation until serviced by the DRAM
system.mem_ctrls.dram.avgQLat                27176.29                       # Average queueing delay per DRAM burst
system.mem_ctrls.dram.avgBusLat               5000.00                       # Average bus latency per DRAM burst
system.mem_ctrls.dram.avgMemAccLat           45926.29                       # Average memory access latency per DRAM burst
system.mem_ctrls.dram.readRowHits             4735710                       # Number of row buffer hits during reads
system.mem_ctrls.dram.writeRowHits            4720380                       # Number of row buffer hits during writes
system.mem_ctrls.dram.readRowHitRate            89.94                       # Row buffer hit rate for reads
system.mem_ctrls.dram.writeRowHitRate           89.82                       # Row buffer hit rate for writes
system.mem_ctrls.dram.bytesPerActivate::samples      1064427                       # Bytes accessed per row activation
system.mem_ctrls.dram.bytesPerActivate::mean   632.559197                       # Bytes accessed per row activation
system.mem_ctrls.dram.bytesPerActivate::gmean   500.669764                       # Bytes accessed per row activation
system.mem_ctrls.dram.bytesPerActivate::stdev   373.503025                       # Bytes accessed per row activation
system.mem_ctrls.dram.bytesPerActivate::0-127        26794      2.52%      2.52% # Bytes accessed per row activation
system.mem_ctrls.dram.bytesPerActivate::128-255        20459      1.92%      4.44% # Bytes accessed per row activation
system.mem_ctrls.dram.bytesPerActivate::256-383       431143     40.50%     44.94% # Bytes accessed per row activation
system.mem_ctrls.dram.bytesPerActivate::384-511         7598      0.71%     45.66% # Bytes accessed per row activation
system.mem_ctrls.dram.bytesPerActivate::512-639        52372      4.92%     50.58% # Bytes accessed per row activation
system.mem_ctrls.dram.bytesPerActivate::640-767         6946      0.65%     51.23% # Bytes accessed per row activation
system.mem_ctrls.dram.bytesPerActivate::768-895        38699      3.64%     54.87% # Bytes accessed per row activation
system.mem_ctrls.dram.bytesPerActivate::896-1023        12153      1.14%     56.01% # Bytes accessed per row activation
system.mem_ctrls.dram.bytesPerActivate::1024-1151       468263     43.99%    100.00% # Bytes accessed per row activation
system.mem_ctrls.dram.bytesPerActivate::total      1064427                       # Bytes accessed per row activation
system.mem_ctrls.dram.bytesRead             336970240                       # Total number of bytes read from DRAM
system.mem_ctrls.dram.bytesWritten          336342848                       # Total number of bytes written to DRAM
system.mem_ctrls.dram.avgRdBW              906.879652                       # Average DRAM read bandwidth in MiBytes/s
system.mem_ctrls.dram.avgWrBW              905.191168                       # Average DRAM write bandwidth in MiBytes/s
system.mem_ctrls.dram.peakBW                 12800.00                       # Theoretical peak bandwidth in MiByte/s
system.mem_ctrls.dram.busUtil                   14.16                       # Data bus utilization in percentage
system.mem_ctrls.dram.busUtilRead                7.08                       # Data bus utilization in percentage for reads
system.mem_ctrls.dram.busUtilWrite               7.07                       # Data bus utilization in percentage for writes
system.mem_ctrls.dram.pageHitRate               89.88                       # Row buffer hit rate, read and write combined
system.mem_ctrls.dram.power_state.pwrStateResidencyTicks::UNDEFINED 371571067000                       # Cumulative time (in ticks) in various power states
system.mem_ctrls.dram.rank0.actEnergy      3800522040                       # Energy for activate commands per rank (pJ)
system.mem_ctrls.dram.rank0.preEnergy      2020025370                       # Energy for precharge commands per rank (pJ)
system.mem_ctrls.dram.rank0.readEnergy    18799562880                       # Energy for read commands per rank (pJ)
system.mem_ctrls.dram.rank0.writeEnergy   13719042180                       # Energy for write commands per rank (pJ)
system.mem_ctrls.dram.rank0.refreshEnergy 29331235440.000004                       # Energy for refresh commands per rank (pJ)
system.mem_ctrls.dram.rank0.actBackEnergy  85476981690                       # Energy for active background per rank (pJ)
system.mem_ctrls.dram.rank0.preBackEnergy  70702673760                       # Energy for precharge background per rank (pJ)
system.mem_ctrls.dram.rank0.actPowerDownEnergy            0                       # Energy for active power-down per rank (pJ)
system.mem_ctrls.dram.rank0.prePowerDownEnergy            0                       # Energy for precharge power-down per rank (pJ)
system.mem_ctrls.dram.rank0.selfRefreshEnergy            0                       # Energy for self refresh per rank (pJ)
system.mem_ctrls.dram.rank0.totalEnergy  223850043360                       # Total energy per rank (pJ)
system.mem_ctrls.dram.rank0.averagePower   602.442072                       # Core power per rank (mW)
system.mem_ctrls.dram.rank0.totalIdleTime            0                       # Total Idle time Per DRAM Rank
system.mem_ctrls.dram.rank0.pwrStateTime::IDLE 180089521250                       # Time in different power states
system.mem_ctrls.dram.rank0.pwrStateTime::REF  12407460000                       # Time in different power states
system.mem_ctrls.dram.rank0.pwrStateTime::SREF            0                       # Time in different power states
system.mem_ctrls.dram.rank0.pwrStateTime::PRE_PDN            0                       # Time in different power states
system.mem_ctrls.dram.rank0.pwrStateTime::ACT 179074085750                       # Time in different power states
system.mem_ctrls.dram.rank0.pwrStateTime::ACT_PDN            0                       # Time in different power states
system.mem_ctrls.dram.rank1.actEnergy      3799486740                       # Energy for activate commands per rank (pJ)
system.mem_ctrls.dram.rank1.preEnergy      2019475095                       # Energy for precharge commands per rank (pJ)
system.mem_ctrls.dram.rank1.readEnergy    18793679520                       # Energy for read commands per rank (pJ)
system.mem_ctrls.dram.rank1.writeEnergy   13713921360                       # Energy for write commands per rank (pJ)
system.mem_ctrls.dram.rank1.refreshEnergy 29331235440.000004                       # Energy for refresh commands per rank (pJ)
system.mem_ctrls.dram.rank1.actBackEnergy  85472398890                       # Energy for active background per rank (pJ)
system.mem_ctrls.dram.rank1.preBackEnergy  70706532960                       # Energy for precharge background per rank (pJ)
system.mem_ctrls.dram.rank1.actPowerDownEnergy            0                       # Energy for active power-down per rank (pJ)
system.mem_ctrls.dram.rank1.prePowerDownEnergy            0                       # Energy for precharge power-down per rank (pJ)
system.mem_ctrls.dram.rank1.selfRefreshEnergy            0                       # Energy for self refresh per rank (pJ)
system.mem_ctrls.dram.rank1.totalEnergy  223836730005                       # Total energy per rank (pJ)
system.mem_ctrls.dram.rank1.averagePower   602.406242                       # Core power per rank (mW)
system.mem_ctrls.dram.rank1.totalIdleTime            0                       # Total Idle time Per DRAM Rank
system.mem_ctrls.dram.rank1.pwrStateTime::IDLE 180099839000                       # Time in different power states
system.mem_ctrls.dram.rank1.pwrStateTime::REF  12407460000                       # Time in different power states
system.mem_ctrls.dram.rank1.pwrStateTime::SREF            0                       # Time in different power states
system.mem_ctrls.dram.rank1.pwrStateTime::PRE_PDN            0                       # Time in different power states
system.mem_ctrls.dram.rank1.pwrStateTime::ACT 179063768000                       # Time in different power states
system.mem_ctrls.dram.rank1.pwrStateTime::ACT_PDN            0                       # Time in different power states
system.mem_ctrls.power_state.pwrStateResidencyTicks::UNDEFINED 371571067000                       # Cumulative time (in ticks) in various power states
system.membus.trans_dist::ReadResp                415                       # Transaction distribution
system.membus.trans_dist::WritebackDirty      1313847                       # Transaction distribution
system.membus.trans_dist::CleanEvict              175                       # Transaction distribution
system.membus.trans_dist::ReadExReq           1315875                       # Transaction distribution
system.membus.trans_dist::ReadExResp          1315875                       # Transaction distribution
system.membus.trans_dist::ReadSharedReq           415                       # Transaction distribution
system.membus.pkt_count_system.l2.mem_side_port::system.mem_ctrls.port      3946602                       # Packet count per connected requestor and responder (bytes)
system.membus.pkt_count::total                3946602                       # Packet count per connected requestor and responder (bytes)
system.membus.pkt_size_system.l2.mem_side_port::system.mem_ctrls.port    673315072                       # Cumulative packet size per connected requestor and responder (bytes)
system.membus.pkt_size::total               673315072                       # Cumulative packet size per connected requestor and responder (bytes)
system.membus.snoops                                0                       # Total snoops (count)
system.membus.snoopTraffic                          0                       # Total snoop traffic (bytes)
system.membus.snoop_fanout::samples           1316290                       # Request fanout histogram
system.membus.snoop_fanout::mean                    0                       # Request fanout histogram
system.membus.snoop_fanout::stdev                   0                       # Request fanout histogram
system.membus.snoop_fanout::underflows              0      0.00%      0.00% # Request fanout histogram
system.membus.snoop_fanout::0                 1316290    100.00%    100.00% # Request fanout histogram
system.membus.snoop_fanout::1                       0      0.00%    100.00% # Request fanout histogram
system.membus.snoop_fanout::overflows               0      0.00%    100.00% # Request fanout histogram
system.membus.snoop_fanout::min_value               0                       # Request fanout histogram
system.membus.snoop_fanout::max_value               0                       # Request fanout histogram
system.membus.snoop_fanout::total             1316290                       # Request fanout histogram
system.membus.power_state.pwrStateResidencyTicks::UNDEFINED 371571067000                       # Cumulative time (in ticks) in various power states
system.membus.reqLayer0.occupancy         23651864000                       # Layer occupancy (ticks)
system.membus.reqLayer0.utilization               6.4                       # Layer utilization (%)
system.membus.respLayer1.occupancy        22794057750                       # Layer occupancy (ticks)
system.membus.respLayer1.utilization              6.1                       # Layer utilization (%)
system.tol2bus.trans_dist::ReadResp               493                       # Transaction distribution
system.tol2bus.trans_dist::WritebackDirty      2629508                       # Transaction distribution
system.tol2bus.trans_dist::WritebackClean           90                       # Transaction distribution
system.tol2bus.trans_dist::CleanEvict             596                       # Transaction distribution
system.tol2bus.trans_dist::ReadExReq          1315886                       # Transaction distribution
system.tol2bus.trans_dist::ReadExResp         1315886                       # Transaction distribution
system.tol2bus.trans_dist::ReadCleanReq           295                       # Transaction distribution
system.tol2bus.trans_dist::ReadSharedReq          198                       # Transaction distribution
system.tol2bus.pkt_count_system.cpu.icache.mem_side_port::system.l2.cpu_side_port          680                       # Packet count per connected requestor and responder (bytes)
system.tol2bus.pkt_count_system.cpu.dcache.mem_side_port::system.l2.cpu_side_port      3947996                       # Packet count per connected requestor and responder (bytes)
system.tol2bus.pkt_count::total               3948676                       # Packet count per connected requestor and responder (bytes)
system.tol2bus.pkt_size_system.cpu.icache.mem_side_port::system.l2.cpu_side_port        98560                       # Cumulative packet size per connected requestor and responder (bytes)
system.tol2bus.pkt_size_system.cpu.dcache.mem_side_port::system.l2.cpu_side_port    673726720                       # Cumulative packet size per connected requestor and responder (bytes)
system.tol2bus.pkt_size::total              673825280                       # Cumulative packet size per connected requestor and responder (bytes)
system.tol2bus.snoops                         1314276                       # Total snoops (count)
system.tol2bus.snoopTraffic                 336344832                       # Total snoop traffic (bytes)
system.tol2bus.snoop_fanout::samples          2630655                       # Request fanout histogram
system.tol2bus.snoop_fanout::mean            0.000118                       # Request fanout histogram
system.tol2bus.snoop_fanout::stdev           0.010855                       # Request fanout histogram
system.tol2bus.snoop_fanout::underflows             0      0.00%      0.00% # Request fanout histogram
system.tol2bus.snoop_fanout::0                2630345     99.99%     99.99% # Request fanout histogram
system.tol2bus.snoop_fanout::1                    310      0.01%    100.00% # Request fanout histogram
system.tol2bus.snoop_fanout::2                      0      0.00%    100.00% # Request fanout histogram
system.tol2bus.snoop_fanout::overflows              0      0.00%    100.00% # Request fanout histogram
system.tol2bus.snoop_fanout::min_value              0                       # Request fanout histogram
system.tol2bus.snoop_fanout::max_value              1                       # Request fanout histogram
system.tol2bus.snoop_fanout::total            2630655                       # Request fanout histogram
system.tol2bus.power_state.pwrStateResidencyTicks::UNDEFINED 371571067000                       # Cumulative time (in ticks) in various power states
system.tol2bus.reqLayer0.occupancy        13158305000                       # Layer occupancy (ticks)
system.tol2bus.reqLayer0.utilization              3.5                       # Layer utilization (%)
system.tol2bus.respLayer0.occupancy           2655999                       # Layer occupancy (ticks)
system.tol2bus.respLayer0.utilization             0.0                       # Layer utilization (%)
system.tol2bus.respLayer1.occupancy       11844763992                       # Layer occupancy (ticks)
system.tol2bus.respLayer1.utilization             3.2                       # Layer utilization (%)
system.voltage_domain.voltage                       1                       # Voltage in Volts

---------- End Simulation Statistics   ----------
