
---------- Begin Simulation Statistics ----------
final_tick                               165366198000                       # Number of ticks from beginning of simulation (restored from checkpoints and never reset)
host_inst_rate                                 224248                       # Simulator instruction rate (inst/s)
host_mem_usage                                 665500                       # Number of bytes of host memory used
host_op_rate                                   224256                       # Simulator op (including micro ops) rate (op/s)
host_seconds                                   445.93                       # Real time elapsed on the host
host_tick_rate                              370830956                       # Simulator tick rate (ticks/s)
sim_freq                                 1000000000000                       # Frequency of simulated ticks
sim_insts                                   100000000                       # Number of instructions simulated
sim_ops                                     100003630                       # Number of ops (including micro ops) simulated
sim_seconds                                  0.165366                       # Number of seconds simulated
sim_ticks                                165366198000                       # Number of ticks simulated
system.cpu.committedInsts                   100000000                       # Number of instructions committed
system.cpu.committedOps                     100003630                       # Number of ops (including micro ops) committed
system.cpu.cpi                               1.653662                       # CPI: cycles per instruction
system.cpu.discardedOps                         21248                       # Number of ops (including micro ops) which were discarded before commit
system.cpu.idleCycles                        51652040                       # Total number of cycles that the object has spent stopped
system.cpu.ipc                               0.604719                       # IPC: instructions per cycle
system.cpu.numCycles                        165366198                       # number of cpu cycles simulated
system.cpu.numFetchSuspends                         0                       # Number of times Execute suspended instruction fetching
system.cpu.numWorkItemsCompleted                    0                       # number of work items this cpu completed
system.cpu.numWorkItemsStarted                      0                       # number of work items this cpu started
system.cpu.op_class_0::No_OpClass                   0      0.00%      0.00% # Class of committed instruction
system.cpu.op_class_0::IntAlu                49995350     49.99%     49.99% # Class of committed instruction
system.cpu.op_class_0::IntMult                     88      0.00%     49.99% # Class of committed instruction
system.cpu.op_class_0::IntDiv                       0      0.00%     49.99% # Class of committed instruction
system.cpu.op_class_0::FloatAdd                     0      0.00%     49.99% # Class of committed instruction
system.cpu.op_class_0::FloatCmp                     0      0.00%     49.99% # Class of committed instruction
system.cpu.op_class_0::FloatCvt                     0      0.00%     49.99% # Class of committed instruction
system.cpu.op_class_0::FloatMult                    0      0.00%     49.99% # Class of committed instruction
system.cpu.op_class_0::FloatMultAcc                 0      0.00%     49.99% # Class of committed instruction
system.cpu.op_class_0::FloatDiv                     0      0.00%     49.99% # Class of committed instruction
system.cpu.op_class_0::FloatMisc                    0      0.00%     49.99% # Class of committed instruction
system.cpu.op_class_0::FloatSqrt                    0      0.00%     49.99% # Class of committed instruction
system.cpu.op_class_0::SimdAdd                      0      0.00%     49.99% # Class of committed instruction
system.cpu.op_class_0::SimdAddAcc                   0      0.00%     49.99% # Class of committed instruction
system.cpu.op_class_0::SimdAlu                      0      0.00%     49.99% # Class of committed instruction
system.cpu.op_class_0::SimdCmp                      0      0.00%     49.99% # Class of committed instruction
system.cpu.op_class_0::SimdCvt                      0      0.00%     49.99% # Class of committed instruction
system.cpu.op_class_0::SimdMisc                     0      0.00%     49.99% # Class of committed instruction
system.cpu.op_class_0::SimdMult                     0      0.00%     49.99% # Class of committed instruction
system.cpu.op_class_0::SimdMultAcc                  0      0.00%     49.99% # Class of committed instruction
system.cpu.op_class_0::SimdShift                    0      0.00%     49.99% # Class of committed instruction
system.cpu.op_class_0::SimdShiftAcc                 0      0.00%     49.99% # Class of committed instruction
system.cpu.op_class_0::SimdDiv                      0      0.00%     49.99% # Class of committed instruction
system.cpu.op_class_0::SimdSqrt                     0      0.00%     49.99% # Class of committed instruction
system.cpu.op_class_0::SimdFloatAdd                 0      0.00%     49.99% # Class of committed instruction
system.cpu.op_class_0::SimdFloatAlu                 0      0.00%     49.99% # Class of committed instruction
system.cpu.op_class_0::SimdFloatCmp                 2      0.00%     49.99% # Class of committed instruction
system.cpu.op_class_0::SimdFloatCvt                 0      0.00%     49.99% # Class of committed instruction
system.cpu.op_class_0::SimdFloatDiv                 0      0.00%     49.99% # Class of committed instruction
system.cpu.op_class_0::SimdFloatMisc               22      0.00%     49.99% # Class of committed instruction
system.cpu.op_class_0::SimdFloatMult                0      0.00%     49.99% # Class of committed instruction
system.cpu.op_class_0::SimdFloatMultAcc             0      0.00%     49.99% # Class of committed instruction
system.cpu.op_class_0::SimdFloatSqrt                0      0.00%     49.99% # Class of committed instruction
system.cpu.op_class_0::SimdReduceAdd                0      0.00%     49.99% # Class of committed instruction
system.cpu.op_class_0::SimdReduceAlu                0      0.00%     49.99% # Class of committed instruction
system.cpu.op_class_0::SimdReduceCmp                0      0.00%     49.99% # Class of committed instruction
system.cpu.op_class_0::SimdFloatReduceAdd            0      0.00%     49.99% # Class of committed instruction
system.cpu.op_class_0::SimdFloatReduceCmp            0      0.00%     49.99% # Class of committed instruction
system.cpu.op_class_0::SimdAes                      0      0.00%     49.99% # Class of committed instruction
system.cpu.op_class_0::SimdAesMix                   0      0.00%     49.99% # Class of committed instruction
system.cpu.op_class_0::SimdSha1Hash                 0      0.00%     49.99% # Class of committed instruction
system.cpu.op_class_0::SimdSha1Hash2                0      0.00%     49.99% # Class of committed instruction
system.cpu.op_class_0::SimdSha256Hash               0      0.00%     49.99% # Class of committed instruction
system.cpu.op_class_0::SimdSha256Hash2              0      0.00%     49.99% # Class of committed instruction
system.cpu.op_class_0::SimdShaSigma2                0      0.00%     49.99% # Class of committed instruction
system.cpu.op_class_0::SimdShaSigma3                0      0.00%     49.99% # Class of committed instruction
system.cpu.op_class_0::SimdPredAlu                  0      0.00%     49.99% # Class of committed instruction
system.cpu.op_class_0::MemRead               36892285     36.89%     86.88% # Class of committed instruction
system.cpu.op_class_0::MemWrite              13115883     13.12%    100.00% # Class of committed instruction
system.cpu.op_class_0::FloatMemRead                 0      0.00%    100.00% # Class of committed instruction
system.cpu.op_class_0::FloatMemWrite                0      0.00%    100.00% # Class of committed instruction
system.cpu.op_class_0::IprAccess                    0      0.00%    100.00% # Class of committed instruction
system.cpu.op_class_0::InstPrefetch                 0      0.00%    100.00% # Class of committed instruction
system.cpu.op_class_0::total                100003630                       # Class of committed instruction
system.cpu.tickCycles                       113714158                       # Number of cycles that the object actually ticked
system.cpu.workload.numSyscalls                    19                       # Number of system calls
system.membus.snoop_filter.hit_multi_requests            0                       # Number of requests hitting in the snoop filter with multiple (>1) holders of the requested data.
system.membus.snoop_filter.hit_multi_snoops            0                       # Number of snoops hitting in the snoop filter with multiple (>1) holders of the requested data.
system.membus.snoop_filter.hit_single_requests       355561                       # Number of requests hitting in the snoop filter with a single holder of the requested data.
system.membus.snoop_filter.hit_single_snoops            0                       # Number of snoops hitting in the snoop filter with a single holder of the requested data.
system.membus.snoop_filter.tot_requests        727732                       # Total number of requests made to the snoop filter.
system.membus.snoop_filter.tot_snoops               0                       # Total number of snoops made to the snoop filter.
system.tol2bus.snoop_filter.hit_multi_requests           31                       # Number of requests hitting in the snoop filter with multiple (>1) holders of the requested data.
system.tol2bus.snoop_filter.hit_multi_snoops            1                       # Number of snoops hitting in the snoop filter with multiple (>1) holders of the requested data.
system.tol2bus.snoop_filter.hit_single_requests       371470                       # Number of requests hitting in the snoop filter with a single holder of the requested data.
system.tol2bus.snoop_filter.hit_single_snoops          225                       # Number of snoops hitting in the snoop filter with a single holder of the requested data.
system.tol2bus.snoop_filter.tot_requests       743675                       # Total number of requests made to the snoop filter.
system.tol2bus.snoop_filter.tot_snoops            226                       # Total number of snoops made to the snoop filter.
system.clk_domain.clock                          1000                       # Clock period in ticks
system.cpu.branchPred.lookups                  606674                       # Number of BP lookups
system.cpu.branchPred.condPredicted            604529                       # Number of conditional branches predicted
system.cpu.branchPred.condIncorrect               823                       # Number of conditional branches incorrect
system.cpu.branchPred.BTBLookups               602599                       # Number of BTB lookups
system.cpu.branchPred.BTBHits                  601420                       # Number of BTB hits
system.cpu.branchPred.BTBHitPct             99.804348                       # BTB Hit Percentage
system.cpu.branchPred.RASUsed                     573                       # Number of times the RAS was used to get a target.
system.cpu.branchPred.RASIncorrect                  2                       # Number of incorrect RAS predictions.
system.cpu.branchPred.indirectLookups             373                       # Number of indirect predictor lookups.
system.cpu.branchPred.indirectHits                174                       # Number of indirect target hits.
system.cpu.branchPred.indirectMisses              199                       # Number of indirect misses.
system.cpu.branchPred.indirectMispredicted          102                       # Number of mispredicted indirect branches.
system.cpu.dcache.demand_hits::.cpu.data     48051350                       # number of demand (read+write) hits
system.cpu.dcache.demand_hits::total         48051350                       # number of demand (read+write) hits
system.cpu.dcache.overall_hits::.cpu.data     48051394                       # number of overall hits
system.cpu.dcache.overall_hits::total        48051394                       # number of overall hits
system.cpu.dcache.demand_misses::.cpu.data       743840                       # number of demand (read+write) misses
system.cpu.dcache.demand_misses::total         743840                       # number of demand (read+write) misses
system.cpu.dcache.overall_misses::.cpu.data       743848                       # number of overall misses
system.cpu.dcache.overall_misses::total        743848                       # number of overall misses
system.cpu.dcache.demand_miss_latency::.cpu.data  91037884000                       # number of demand (read+write) miss cycles
system.cpu.dcache.demand_miss_latency::total  91037884000                       # number of demand (read+write) miss cycles
system.cpu.dcache.overall_miss_latency::.cpu.data  91037884000                       # number of overall miss cycles
system.cpu.dcache.overall_miss_latency::total  91037884000                       # number of overall miss cycles
system.cpu.dcache.demand_accesses::.cpu.data     48795190                       # number of demand (read+write) accesses
system.cpu.dcache.demand_accesses::total     48795190                       # number of demand (read+write) accesses
system.cpu.dcache.overall_accesses::.cpu.data     48795242                       # number of overall (read+write) accesses
system.cpu.dcache.overall_accesses::total     48795242                       # number of overall (read+write) accesses
system.cpu.dcache.demand_miss_rate::.cpu.data     0.015244                       # miss rate for demand accesses
system.cpu.dcache.demand_miss_rate::total     0.015244                       # miss rate for demand accesses
system.cpu.dcache.overall_miss_rate::.cpu.data     0.015244                       # miss rate for overall accesses
system.cpu.dcache.overall_miss_rate::total     0.015244                       # miss rate for overall accesses
system.cpu.dcache.demand_avg_miss_latency::.cpu.data 122389.067541                       # average overall miss latency
system.cpu.dcache.demand_avg_miss_latency::total 122389.067541                       # average overall miss latency
system.cpu.dcache.overall_avg_miss_latency::.cpu.data 122387.751261                       # average overall miss latency
system.cpu.dcache.overall_avg_miss_latency::total 122387.751261                       # average overall miss latency
system.cpu.dcache.blocked_cycles::no_mshrs            0                       # number of cycles access was blocked
system.cpu.dcache.blocked_cycles::no_targets            0                       # number of cycles access was blocked
system.cpu.dcache.blocked::no_mshrs                 0                       # number of cycles access was blocked
system.cpu.dcache.blocked::no_targets               0                       # number of cycles access was blocked
system.cpu.dcache.avg_blocked_cycles::no_mshrs          nan                       # average number of cycles each access was blocked
system.cpu.dcache.avg_blocked_cycles::no_targets          nan                       # average number of cycles each access was blocked
system.cpu.dcache.writebacks::.writebacks       371386                       # number of writebacks
system.cpu.dcache.writebacks::total            371386                       # number of writebacks
system.cpu.dcache.demand_mshr_hits::.cpu.data       371883                       # number of demand (read+write) MSHR hits
system.cpu.dcache.demand_mshr_hits::total       371883                       # number of demand (read+write) MSHR hits
system.cpu.dcache.overall_mshr_hits::.cpu.data       371883                       # number of overall MSHR hits
system.cpu.dcache.overall_mshr_hits::total       371883                       # number of overall MSHR hits
system.cpu.dcache.demand_mshr_misses::.cpu.data       371957                       # number of demand (read+write) MSHR misses
system.cpu.dcache.demand_mshr_misses::total       371957                       # number of demand (read+write) MSHR misses
system.cpu.dcache.overall_mshr_misses::.cpu.data       371960                       # number of overall MSHR misses
system.cpu.dcache.overall_mshr_misses::total       371960                       # number of overall MSHR misses
system.cpu.dcache.demand_mshr_miss_latency::.cpu.data  45633978000                       # number of demand (read+write) MSHR miss cycles
system.cpu.dcache.demand_mshr_miss_latency::total  45633978000                       # number of demand (read+write) MSHR miss cycles
system.cpu.dcache.overall_mshr_miss_latency::.cpu.data  45634302000                       # number of overall MSHR miss cycles
system.cpu.dcache.overall_mshr_miss_latency::total  45634302000                       # number of overall MSHR miss cycles
system.cpu.dcache.demand_mshr_miss_rate::.cpu.data     0.007623                       # mshr miss rate for demand accesses
system.cpu.dcache.demand_mshr_miss_rate::total     0.007623                       # mshr miss rate for demand accesses
system.cpu.dcache.overall_mshr_miss_rate::.cpu.data     0.007623                       # mshr miss rate for overall accesses
system.cpu.dcache.overall_mshr_miss_rate::total     0.007623                       # mshr miss rate for overall accesses
system.cpu.dcache.demand_avg_mshr_miss_latency::.cpu.data 122686.165336                       # average overall mshr miss latency
system.cpu.dcache.demand_avg_mshr_miss_latency::total 122686.165336                       # average overall mshr miss latency
system.cpu.dcache.overall_avg_mshr_miss_latency::.cpu.data 122686.046887                       # average overall mshr miss latency
system.cpu.dcache.overall_avg_mshr_miss_latency::total 122686.046887                       # average overall mshr miss latency
system.cpu.dcache.replacements                 371448                       # number of replacements
system.cpu.dcache.ReadReq_hits::.cpu.data     35702590                       # number of ReadReq hits
system.cpu.dcache.ReadReq_hits::total        35702590                       # number of ReadReq hits
system.cpu.dcache.ReadReq_misses::.cpu.data           78                       # number of ReadReq misses
system.cpu.dcache.ReadReq_misses::total            78                       # number of ReadReq misses
system.cpu.dcache.ReadReq_miss_latency::.cpu.data      7633000                       # number of ReadReq miss cycles
system.cpu.dcache.ReadReq_miss_latency::total      7633000                       # number of ReadReq miss cycles
system.cpu.dcache.ReadReq_accesses::.cpu.data     35702668                       # number of ReadReq accesses(hits+misses)
system.cpu.dcache.ReadReq_accesses::total     35702668                       # number of ReadReq accesses(hits+misses)
system.cpu.dcache.ReadReq_miss_rate::.cpu.data     0.000002                       # miss rate for ReadReq accesses
system.cpu.dcache.ReadReq_miss_rate::total     0.000002                       # miss rate for ReadReq accesses
system.cpu.dcache.ReadReq_avg_miss_latency::.cpu.data 97858.974359                       # average ReadReq miss latency
system.cpu.dcache.ReadReq_avg_miss_latency::total 97858.974359                       # average ReadReq miss latency
system.cpu.dcache.ReadReq_mshr_hits::.cpu.data            7                       # number of ReadReq MSHR hits
system.cpu.dcache.ReadReq_mshr_hits::total            7                       # number of ReadReq MSHR hits
system.cpu.dcache.ReadReq_mshr_misses::.cpu.data           71                       # number of ReadReq MSHR misses
system.cpu.dcache.ReadReq_mshr_misses::total           71                       # number of ReadReq MSHR misses
system.cpu.dcache.ReadReq_mshr_miss_latency::.cpu.data      6715000                       # number of ReadReq MSHR miss cycles
system.cpu.dcache.ReadReq_mshr_miss_latency::total      6715000                       # number of ReadReq MSHR miss cycles
system.cpu.dcache.ReadReq_mshr_miss_rate::.cpu.data     0.000002                       # mshr miss rate for ReadReq accesses
system.cpu.dcache.ReadReq_mshr_miss_rate::total     0.000002                       # mshr miss rate for ReadReq accesses
system.cpu.dcache.ReadReq_avg_mshr_miss_latency::.cpu.data 94577.464789                       # average ReadReq mshr miss latency
system.cpu.dcache.ReadReq_avg_mshr_miss_latency::total 94577.464789                       # average ReadReq mshr miss latency
system.cpu.dcache.WriteReq_hits::.cpu.data     12348760                       # number of WriteReq hits
system.cpu.dcache.WriteReq_hits::total       12348760                       # number of WriteReq hits
system.cpu.dcache.WriteReq_misses::.cpu.data       743762                       # number of WriteReq misses
system.cpu.dcache.WriteReq_misses::total       743762                       # number of WriteReq misses
system.cpu.dcache.WriteReq_miss_latency::.cpu.data  91030251000                       # number of WriteReq miss cycles
system.cpu.dcache.WriteReq_miss_latency::total  91030251000                       # number of WriteReq miss cycles
system.cpu.dcache.WriteReq_accesses::.cpu.data     13092522                       # number of WriteReq accesses(hits+misses)
system.cpu.dcache.WriteReq_accesses::total     13092522                       # number of WriteReq accesses(hits+misses)
system.cpu.dcache.WriteReq_miss_rate::.cpu.data     0.056808                       # miss rate for WriteReq accesses
system.cpu.dcache.WriteReq_miss_rate::total     0.056808                       # miss rate for WriteReq accesses
system.cpu.dcache.WriteReq_avg_miss_latency::.cpu.data 122391.640068                       # average WriteReq miss latency
system.cpu.dcache.WriteReq_avg_miss_latency::total 122391.640068                       # average WriteReq miss latency
system.cpu.dcache.WriteReq_mshr_hits::.cpu.data       371876                       # number of WriteReq MSHR hits
system.cpu.dcache.WriteReq_mshr_hits::total       371876                       # number of WriteReq MSHR hits
system.cpu.dcache.WriteReq_mshr_misses::.cpu.data       371886                       # number of WriteReq MSHR misses
system.cpu.dcache.WriteReq_mshr_misses::total       371886                       # number of WriteReq MSHR misses
system.cpu.dcache.WriteReq_mshr_miss_latency::.cpu.data  45627263000                       # number of WriteReq MSHR miss cycles
system.cpu.dcache.WriteReq_mshr_miss_latency::total  45627263000                       # number of WriteReq MSHR miss cycles
system.cpu.dcache.WriteReq_mshr_miss_rate::.cpu.data     0.028404                       # mshr miss rate for WriteReq accesses
system.cpu.dcache.WriteReq_mshr_miss_rate::total     0.028404                       # mshr miss rate for WriteReq accesses
system.cpu.dcache.WriteReq_avg_mshr_miss_latency::.cpu.data 122691.531814                       # average WriteReq mshr miss latency
system.cpu.dcache.WriteReq_avg_mshr_miss_latency::total 122691.531814                       # average WriteReq mshr miss latency
system.cpu.dcache.SoftPFReq_hits::.cpu.data           44                       # number of SoftPFReq hits
system.cpu.dcache.SoftPFReq_hits::total            44                       # number of SoftPFReq hits
system.cpu.dcache.SoftPFReq_misses::.cpu.data            8                       # number of SoftPFReq misses
system.cpu.dcache.SoftPFReq_misses::total            8                       # number of SoftPFReq misses
system.cpu.dcache.SoftPFReq_accesses::.cpu.data           52                       # number of SoftPFReq accesses(hits+misses)
system.cpu.dcache.SoftPFReq_accesses::total           52                       # number of SoftPFReq accesses(hits+misses)
system.cpu.dcache.SoftPFReq_miss_rate::.cpu.data     0.153846                       # miss rate for SoftPFReq accesses
system.cpu.dcache.SoftPFReq_miss_rate::total     0.153846                       # miss rate for SoftPFReq accesses
system.cpu.dcache.SoftPFReq_mshr_misses::.cpu.data            3                       # number of SoftPFReq MSHR misses
system.cpu.dcache.SoftPFReq_mshr_misses::total            3                       # number of SoftPFReq MSHR misses
system.cpu.dcache.SoftPFReq_mshr_miss_latency::.cpu.data       324000                       # number of SoftPFReq MSHR miss cycles
system.cpu.dcache.SoftPFReq_mshr_miss_latency::total       324000                       # number of SoftPFReq MSHR miss cycles
system.cpu.dcache.SoftPFReq_mshr_miss_rate::.cpu.data     0.057692                       # mshr miss rate for SoftPFReq accesses
system.cpu.dcache.SoftPFReq_mshr_miss_rate::total     0.057692                       # mshr miss rate for SoftPFReq accesses
system.cpu.dcache.SoftPFReq_avg_mshr_miss_latency::.cpu.data       108000                       # average SoftPFReq mshr miss latency
system.cpu.dcache.SoftPFReq_avg_mshr_miss_latency::total       108000                       # average SoftPFReq mshr miss latency
system.cpu.dcache.LoadLockedReq_hits::.cpu.data           14                       # number of LoadLockedReq hits
system.cpu.dcache.LoadLockedReq_hits::total           14                       # number of LoadLockedReq hits
system.cpu.dcache.LoadLockedReq_accesses::.cpu.data           14                       # number of LoadLockedReq accesses(hits+misses)
system.cpu.dcache.LoadLockedReq_accesses::total           14                       # number of LoadLockedReq accesses(hits+misses)
system.cpu.dcache.StoreCondReq_hits::.cpu.data           14                       # number of StoreCondReq hits
system.cpu.dcache.StoreCondReq_hits::total           14                       # number of StoreCondReq hits
system.cpu.dcache.StoreCondReq_accesses::.cpu.data           14                       # number of StoreCondReq accesses(hits+misses)
system.cpu.dcache.StoreCondReq_accesses::total           14                       # number of StoreCondReq accesses(hits+misses)
system.cpu.dcache.power_state.pwrStateResidencyTicks::UNDEFINED 165366198000                       # Cumulative time (in ticks) in various power states
system.cpu.dcache.tags.tagsinuse           511.578897                       # Cycle average of tags in use
system.cpu.dcache.tags.total_refs            48423382                       # Total number of references to valid blocks.
system.cpu.dcache.tags.sampled_refs            371960                       # Sample count of references to valid blocks.
system.cpu.dcache.tags.avg_refs            130.184380                       # Average number of references to valid blocks.
system.cpu.dcache.tags.warmup_cycle            255000                       # Cycle when the warmup percentage was hit.
system.cpu.dcache.tags.occ_blocks::.cpu.data   511.578897                       # Average occupied blocks per requestor
system.cpu.dcache.tags.occ_percent::.cpu.data     0.999178                       # Average percentage of cache occupancy
system.cpu.dcache.tags.occ_percent::total     0.999178                       # Average percentage of cache occupancy
system.cpu.dcache.tags.occ_task_id_blocks::1024          512                       # Occupied blocks per task id
system.cpu.dcache.tags.age_task_id_blocks_1024::0           23                       # Occupied blocks per task id
system.cpu.dcache.tags.age_task_id_blocks_1024::1          202                       # Occupied blocks per task id
system.cpu.dcache.tags.age_task_id_blocks_1024::2          285                       # Occupied blocks per task id
system.cpu.dcache.tags.age_task_id_blocks_1024::4            2                       # Occupied blocks per task id
system.cpu.dcache.tags.occ_task_id_percent::1024            1                       # Percentage of cache occupancy per task id
system.cpu.dcache.tags.tag_accesses          97962500                       # Number of tag accesses
system.cpu.dcache.tags.data_accesses         97962500                       # Number of data accesses
system.cpu.dcache.tags.power_state.pwrStateResidencyTicks::UNDEFINED 165366198000                       # Cumulative time (in ticks) in various power states
system.cpu.dtb.instHits                             0                       # ITB inst hits
system.cpu.dtb.instMisses                           0                       # ITB inst misses
system.cpu.dtb.readHits                             0                       # DTB read hits
system.cpu.dtb.readMisses                           0                       # DTB read misses
system.cpu.dtb.writeHits                            0                       # DTB write hits
system.cpu.dtb.writeMisses                          0                       # DTB write misses
system.cpu.dtb.inserts                              0                       # Number of times an entry is inserted into the TLB
system.cpu.dtb.flushTlb                             0                       # Number of times complete TLB was flushed
system.cpu.dtb.flushTlbMva                          0                       # Number of times TLB was flushed by MVA
system.cpu.dtb.flushTlbMvaAsid                      0                       # Number of times TLB was flushed by MVA & ASID
system.cpu.dtb.flushTlbAsid                         0                       # Number of times TLB was flushed by ASID
system.cpu.dtb.flushedEntries                       0                       # Number of entries that have been flushed from TLB
system.cpu.dtb.alignFaults                          0                       # Number of TLB faults due to alignment restrictions
system.cpu.dtb.prefetchFaults                       0                       # Number of TLB faults due to prefetch
system.cpu.dtb.domainFaults                         0                       # Number of TLB faults due to domain restrictions
system.cpu.dtb.permsFaults                          0                       # Number of TLB faults due to permissions restrictions
system.cpu.dtb.readAccesses                         0                       # DTB read accesses
system.cpu.dtb.writeAccesses                        0                       # DTB write accesses
system.cpu.dtb.instAccesses                         0                       # ITB inst accesses
system.cpu.dtb.hits                                 0                       # Total TLB (inst and data) hits
system.cpu.dtb.misses                               0                       # Total TLB (inst and data) misses
system.cpu.dtb.accesses                             0                       # Total TLB (inst and data) accesses
system.cpu.dtb.stage2_mmu.stage2_tlb.instHits            0                       # ITB inst hits
system.cpu.dtb.stage2_mmu.stage2_tlb.instMisses            0                       # ITB inst misses
system.cpu.dtb.stage2_mmu.stage2_tlb.readHits            0                       # DTB read hits
system.cpu.dtb.stage2_mmu.stage2_tlb.readMisses            0                       # DTB read misses
system.cpu.dtb.stage2_mmu.stage2_tlb.writeHits            0                       # DTB write hits
system.cpu.dtb.stage2_mmu.stage2_tlb.writeMisses            0                       # DTB write misses
system.cpu.dtb.stage2_mmu.stage2_tlb.inserts            0                       # Number of times an entry is inserted into the TLB
system.cpu.dtb.stage2_mmu.stage2_tlb.flushTlb            0                       # Number of times complete TLB was flushed
system.cpu.dtb.stage2_mmu.stage2_tlb.flushTlbMva            0                       # Number of times TLB was flushed by MVA
system.cpu.dtb.stage2_mmu.stage2_tlb.flushTlbMvaAsid            0                       # Number of times TLB was flushed by MVA & ASID
system.cpu.dtb.stage2_mmu.stage2_tlb.flushTlbAsid            0                       # Number of times TLB was flushed by ASID
system.cpu.dtb.stage2_mmu.stage2_tlb.flushedEntries            0                       # Number of entries that have been flushed from TLB
system.cpu.dtb.stage2_mmu.stage2_tlb.alignFaults            0                       # Number of TLB faults due to alignment restrictions
system.cpu.dtb.stage2_mmu.stage2_tlb.prefetchFaults            0                       # Number of TLB faults due to prefetch
system.cpu.dtb.stage2_mmu.stage2_tlb.domainFaults            0                       # Number of TLB faults due to domain restrictions
system.cpu.dtb.stage2_mmu.stage2_tlb.permsFaults            0                       # Number of TLB faults due to permissions restrictions
system.cpu.dtb.stage2_mmu.stage2_tlb.readAccesses            0                       # DTB read accesses
system.cpu.dtb.stage2_mmu.stage2_tlb.writeAccesses            0                       # DTB write accesses
system.cpu.dtb.stage2_mmu.stage2_tlb.instAccesses            0                       # ITB inst accesses
system.cpu.dtb.stage2_mmu.stage2_tlb.hits            0                       # Total TLB (inst and data) hits
system.cpu.dtb.stage2_mmu.stage2_tlb.misses            0                       # Total TLB (inst and data) misses
system.cpu.dtb.stage2_mmu.stage2_tlb.accesses            0                       # Total TLB (inst and data) accesses
system.cpu.dtb.stage2_mmu.stage2_tlb.walker.walks            0                       # Table walker walks requested
system.cpu.dtb.stage2_mmu.stage2_tlb.walker.requestOrigin_Requested::Data            0                       # Table walker requests started/completed, data/inst
system.cpu.dtb.stage2_mmu.stage2_tlb.walker.requestOrigin_Requested::Inst            0                       # Table walker requests started/completed, data/inst
system.cpu.dtb.stage2_mmu.stage2_tlb.walker.requestOrigin_Requested::total            0                       # Table walker requests started/completed, data/inst
system.cpu.dtb.stage2_mmu.stage2_tlb.walker.requestOrigin_Completed::Data            0                       # Table walker requests started/completed, data/inst
system.cpu.dtb.stage2_mmu.stage2_tlb.walker.requestOrigin_Completed::Inst            0                       # Table walker requests started/completed, data/inst
system.cpu.dtb.stage2_mmu.stage2_tlb.walker.requestOrigin_Completed::total            0                       # Table walker requests started/completed, data/inst
system.cpu.dtb.stage2_mmu.stage2_tlb.walker.requestOrigin::total            0                       # Table walker requests started/completed, data/inst
system.cpu.dtb.stage2_mmu.stage2_tlb.walker.power_state.pwrStateResidencyTicks::UNDEFINED 165366198000                       # Cumulative time (in ticks) in various power states
system.cpu.dtb.walker.walks                         0                       # Table walker walks requested
system.cpu.dtb.walker.requestOrigin_Requested::Data            0                       # Table walker requests started/completed, data/inst
system.cpu.dtb.walker.requestOrigin_Requested::Inst            0                       # Table walker requests started/completed, data/inst
system.cpu.dtb.walker.requestOrigin_Requested::total            0                       # Table walker requests started/completed, data/inst
system.cpu.dtb.walker.requestOrigin_Completed::Data            0                       # Table walker requests started/completed, data/inst
system.cpu.dtb.walker.requestOrigin_Completed::Inst            0                       # Table walker requests started/completed, data/inst
system.cpu.dtb.walker.requestOrigin_Completed::total            0                       # Table walker requests started/completed, data/inst
system.cpu.dtb.walker.requestOrigin::total            0                       # Table walker requests started/completed, data/inst
system.cpu.dtb.walker.power_state.pwrStateResidencyTicks::UNDEFINED 165366198000                       # Cumulative time (in ticks) in various power states
system.cpu.fetch2.intInstructions            49675028                       # Number of integer instructions successfully decoded
system.cpu.fetch2.fpInstructions                    0                       # Number of floating point instructions successfully decoded
system.cpu.fetch2.vecInstructions                   0                       # Number of SIMD instructions successfully decoded
system.cpu.fetch2.loadInstructions           37097148                       # Number of memory load instructions successfully decoded
system.cpu.fetch2.storeInstructions          13161221                       # Number of memory store instructions successfully decoded
system.cpu.fetch2.amoInstructions                   0                       # Number of memory atomic instructions successfully decoded
system.cpu.icache.demand_hits::.cpu.inst      3051969                       # number of demand (read+write) hits
system.cpu.icache.demand_hits::total          3051969                       # number of demand (read+write) hits
system.cpu.icache.overall_hits::.cpu.inst      3051969                       # number of overall hits
system.cpu.icache.overall_hits::total         3051969                       # number of overall hits
system.cpu.icache.demand_misses::.cpu.inst          246                       # number of demand (read+write) misses
system.cpu.icache.demand_misses::total            246                       # number of demand (read+write) misses
system.cpu.icache.overall_misses::.cpu.inst          246                       # number of overall misses
system.cpu.icache.overall_misses::total           246                       # number of overall misses
system.cpu.icache.demand_miss_latency::.cpu.inst     29207000                       # number of demand (read+write) miss cycles
system.cpu.icache.demand_miss_latency::total     29207000                       # number of demand (read+write) miss cycles
system.cpu.icache.overall_miss_latency::.cpu.inst     29207000                       # number of overall miss cycles
system.cpu.icache.overall_miss_latency::total     29207000                       # number of overall miss cycles
system.cpu.icache.demand_accesses::.cpu.inst      3052215                       # number of demand (read+write) accesses
system.cpu.icache.demand_accesses::total      3052215                       # number of demand (read+write) accesses
system.cpu.icache.overall_accesses::.cpu.inst      3052215                       # number of overall (read+write) accesses
system.cpu.icache.overall_accesses::total      3052215                       # number of overall (read+write) accesses
system.cpu.icache.demand_miss_rate::.cpu.inst     0.000081                       # miss rate for demand accesses
system.cpu.icache.demand_miss_rate::total     0.000081                       # miss rate for demand accesses
system.cpu.icache.overall_miss_rate::.cpu.inst     0.000081                       # miss rate for overall accesses
system.cpu.icache.overall_miss_rate::total     0.000081                       # miss rate for overall accesses
system.cpu.icache.demand_avg_miss_latency::.cpu.inst 118727.642276                       # average overall miss latency
system.cpu.icache.demand_avg_miss_latency::total 118727.642276                       # average overall miss latency
system.cpu.icache.overall_avg_miss_latency::.cpu.inst 118727.642276                       # average overall miss latency
system.cpu.icache.overall_avg_miss_latency::total 118727.642276                       # average overall miss latency
system.cpu.icache.blocked_cycles::no_mshrs            0                       # number of cycles access was blocked
system.cpu.icache.blocked_cycles::no_targets            0                       # number of cycles access was blocked
system.cpu.icache.blocked::no_mshrs                 0                       # number of cycles access was blocked
system.cpu.icache.blocked::no_targets               0                       # number of cycles access was blocked
system.cpu.icache.avg_blocked_cycles::no_mshrs          nan                       # average number of cycles each access was blocked
system.cpu.icache.avg_blocked_cycles::no_targets          nan                       # average number of cycles each access was blocked
system.cpu.icache.writebacks::.writebacks           21                       # number of writebacks
system.cpu.icache.writebacks::total                21                       # number of writebacks
system.cpu.icache.demand_mshr_misses::.cpu.inst          246                       # number of demand (read+write) MSHR misses
system.cpu.icache.demand_mshr_misses::total          246                       # number of demand (read+write) MSHR misses
system.cpu.icache.overall_mshr_misses::.cpu.inst          246                       # number of overall MSHR misses
system.cpu.icache.overall_mshr_misses::total          246                       # number of overall MSHR misses
system.cpu.icache.demand_mshr_miss_latency::.cpu.inst     28715000                       # number of demand (read+write) MSHR miss cycles
system.cpu.icache.demand_mshr_miss_latency::total     28715000                       # number of demand (read+write) MSHR miss cycles
system.cpu.icache.overall_mshr_miss_latency::.cpu.inst     28715000                       # number of overall MSHR miss cycles
system.cpu.icache.overall_mshr_miss_latency::total     28715000                       # number of overall MSHR miss cycles
system.cpu.icache.demand_mshr_miss_rate::.cpu.inst     0.000081                       # mshr miss rate for demand accesses
system.cpu.icache.demand_mshr_miss_rate::total     0.000081                       # mshr miss rate for demand accesses
system.cpu.icache.overall_mshr_miss_rate::.cpu.inst     0.000081                       # mshr miss rate for overall accesses
system.cpu.icache.overall_mshr_miss_rate::total     0.000081                       # mshr miss rate for overall accesses
system.cpu.icache.demand_avg_mshr_miss_latency::.cpu.inst 116727.642276                       # average overall mshr miss latency
system.cpu.icache.demand_avg_mshr_miss_latency::total 116727.642276                       # average overall mshr miss latency
system.cpu.icache.overall_avg_mshr_miss_latency::.cpu.inst 116727.642276                       # average overall mshr miss latency
system.cpu.icache.overall_avg_mshr_miss_latency::total 116727.642276                       # average overall mshr miss latency
system.cpu.icache.replacements                     21                       # number of replacements
system.cpu.icache.ReadReq_hits::.cpu.inst      3051969                       # number of ReadReq hits
system.cpu.icache.ReadReq_hits::total         3051969                       # number of ReadReq hits
system.cpu.icache.ReadReq_misses::.cpu.inst          246                       # number of ReadReq misses
system.cpu.icache.ReadReq_misses::total           246                       # number of ReadReq misses
system.cpu.icache.ReadReq_miss_latency::.cpu.inst     29207000                       # number of ReadReq miss cycles
system.cpu.icache.ReadReq_miss_latency::total     29207000                       # number of ReadReq miss cycles
system.cpu.icache.ReadReq_accesses::.cpu.inst      3052215                       # number of ReadReq accesses(hits+misses)
system.cpu.icache.ReadReq_accesses::total      3052215                       # number of ReadReq accesses(hits+misses)
system.cpu.icache.ReadReq_miss_rate::.cpu.inst     0.000081                       # miss rate for ReadReq accesses
system.cpu.icache.ReadReq_miss_rate::total     0.000081                       # miss rate for ReadReq accesses
system.cpu.icache.ReadReq_avg_miss_latency::.cpu.inst 118727.642276                       # average ReadReq miss latency
system.cpu.icache.ReadReq_avg_miss_latency::total 118727.642276                       # average ReadReq miss latency
system.cpu.icache.ReadReq_mshr_misses::.cpu.inst          246                       # number of ReadReq MSHR misses
system.cpu.icache.ReadReq_mshr_misses::total          246                       # number of ReadReq MSHR misses
system.cpu.icache.ReadReq_mshr_miss_latency::.cpu.inst     28715000                       # number of ReadReq MSHR miss cycles
system.cpu.icache.ReadReq_mshr_miss_latency::total     28715000                       # number of ReadReq MSHR miss cycles
system.cpu.icache.ReadReq_mshr_miss_rate::.cpu.inst     0.000081                       # mshr miss rate for ReadReq accesses
system.cpu.icache.ReadReq_mshr_miss_rate::total     0.000081                       # mshr miss rate for ReadReq accesses
system.cpu.icache.ReadReq_avg_mshr_miss_latency::.cpu.inst 116727.642276                       # average ReadReq mshr miss latency
system.cpu.icache.ReadReq_avg_mshr_miss_latency::total 116727.642276                       # average ReadReq mshr miss latency
system.cpu.icache.power_state.pwrStateResidencyTicks::UNDEFINED 165366198000                       # Cumulative time (in ticks) in various power states
system.cpu.icache.tags.tagsinuse           224.966001                       # Cycle average of tags in use
system.cpu.icache.tags.total_refs             3052215                       # Total number of references to valid blocks.
system.cpu.icache.tags.sampled_refs               246                       # Sample count of references to valid blocks.
system.cpu.icache.tags.avg_refs          12407.378049                       # Average number of references to valid blocks.
system.cpu.icache.tags.warmup_cycle            123000                       # Cycle when the warmup percentage was hit.
system.cpu.icache.tags.occ_blocks::.cpu.inst   224.966001                       # Average occupied blocks per requestor
system.cpu.icache.tags.occ_percent::.cpu.inst     0.439387                       # Average percentage of cache occupancy
system.cpu.icache.tags.occ_percent::total     0.439387                       # Average percentage of cache occupancy
system.cpu.icache.tags.occ_task_id_blocks::1024          225                       # Occupied blocks per task id
system.cpu.icache.tags.age_task_id_blocks_1024::4          225                       # Occupied blocks per task id
system.cpu.icache.tags.occ_task_id_percent::1024     0.439453                       # Percentage of cache occupancy per task id
system.cpu.icache.tags.tag_accesses           6104676                       # Number of tag accesses
system.cpu.icache.tags.data_accesses          6104676                       # Number of data accesses
system.cpu.icache.tags.power_state.pwrStateResidencyTicks::UNDEFINED 165366198000                       # Cumulative time (in ticks) in various power states
system.cpu.itb.instHits                             0                       # ITB inst hits
system.cpu.itb.instMisses                           0                       # ITB inst misses
system.cpu.itb.readHits                             0                       # DTB read hits
system.cpu.itb.readMisses                           0                       # DTB read misses
system.cpu.itb.writeHits                            0                       # DTB write hits
system.cpu.itb.writeMisses                          0                       # DTB write misses
system.cpu.itb.inserts                              0                       # Number of times an entry is inserted into the TLB
system.cpu.itb.flushTlb                             0                       # Number of times complete TLB was flushed
system.cpu.itb.flushTlbMva                          0                       # Number of times TLB was flushed by MVA
system.cpu.itb.flushTlbMvaAsid                      0                       # Number of times TLB was flushed by MVA & ASID
system.cpu.itb.flushTlbAsid                         0                       # Number of times TLB was flushed by ASID
system.cpu.itb.flushedEntries                       0                       # Number of entries that have been flushed from TLB
system.cpu.itb.alignFaults                          0                       # Number of TLB faults due to alignment restrictions
system.cpu.itb.prefetchFaults                       0                       # Number of TLB faults due to prefetch
system.cpu.itb.domainFaults                         0                       # Number of TLB faults due to domain restrictions
system.cpu.itb.permsFaults                          0                       # Number of TLB faults due to permissions restrictions
system.cpu.itb.readAccesses                         0                       # DTB read accesses
system.cpu.itb.writeAccesses                        0                       # DTB write accesses
system.cpu.itb.instAccesses                         0                       # ITB inst accesses
system.cpu.itb.hits                                 0                       # Total TLB (inst and data) hits
system.cpu.itb.misses                               0                       # Total TLB (inst and data) misses
system.cpu.itb.accesses                             0                       # Total TLB (inst and data) accesses
system.cpu.itb.stage2_mmu.stage2_tlb.instHits            0                       # ITB inst hits
system.cpu.itb.stage2_mmu.stage2_tlb.instMisses            0                       # ITB inst misses
system.cpu.itb.stage2_mmu.stage2_tlb.readHits            0                       # DTB read hits
system.cpu.itb.stage2_mmu.stage2_tlb.readMisses            0                       # DTB read misses
system.cpu.itb.stage2_mmu.stage2_tlb.writeHits            0                       # DTB write hits
system.cpu.itb.stage2_mmu.stage2_tlb.writeMisses            0                       # DTB write misses
system.cpu.itb.stage2_mmu.stage2_tlb.inserts            0                       # Number of times an entry is inserted into the TLB
system.cpu.itb.stage2_mmu.stage2_tlb.flushTlb            0                       # Number of times complete TLB was flushed
system.cpu.itb.stage2_mmu.stage2_tlb.flushTlbMva            0                       # Number of times TLB was flushed by MVA
system.cpu.itb.stage2_mmu.stage2_tlb.flushTlbMvaAsid            0                       # Number of times TLB was flushed by MVA & ASID
system.cpu.itb.stage2_mmu.stage2_tlb.flushTlbAsid            0                       # Number of times TLB was flushed by ASID
system.cpu.itb.stage2_mmu.stage2_tlb.flushedEntries            0                       # Number of entries that have been flushed from TLB
system.cpu.itb.stage2_mmu.stage2_tlb.alignFaults            0                       # Number of TLB faults due to alignment restrictions
system.cpu.itb.stage2_mmu.stage2_tlb.prefetchFaults            0                       # Number of TLB faults due to prefetch
system.cpu.itb.stage2_mmu.stage2_tlb.domainFaults            0                       # Number of TLB faults due to domain restrictions
system.cpu.itb.stage2_mmu.stage2_tlb.permsFaults            0                       # Number of TLB faults due to permissions restrictions
system.cpu.itb.stage2_mmu.stage2_tlb.readAccesses            0                       # DTB read accesses
system.cpu.itb.stage2_mmu.stage2_tlb.writeAccesses            0                       # DTB write accesses
system.cpu.itb.stage2_mmu.stage2_tlb.instAccesses            0                       # ITB inst accesses
system.cpu.itb.stage2_mmu.stage2_tlb.hits            0                       # Total TLB (inst and data) hits
system.cpu.itb.stage2_mmu.stage2_tlb.misses            0                       # Total TLB (inst and data) misses
system.cpu.itb.stage2_mmu.stage2_tlb.accesses            0                       # Total TLB (inst and data) accesses
system.cpu.itb.stage2_mmu.stage2_tlb.walker.walks            0                       # Table walker walks requested
system.cpu.itb.stage2_mmu.stage2_tlb.walker.requestOrigin_Requested::Data            0                       # Table walker requests started/completed, data/inst
system.cpu.itb.stage2_mmu.stage2_tlb.walker.requestOrigin_Requested::Inst            0                       # Table walker requests started/completed, data/inst
system.cpu.itb.stage2_mmu.stage2_tlb.walker.requestOrigin_Requested::total            0                       # Table walker requests started/completed, data/inst
system.cpu.itb.stage2_mmu.stage2_tlb.walker.requestOrigin_Completed::Data            0                       # Table walker requests started/completed, data/inst
system.cpu.itb.stage2_mmu.stage2_tlb.walker.requestOrigin_Completed::Inst            0                       # Table walker requests started/completed, data/inst
system.cpu.itb.stage2_mmu.stage2_tlb.walker.requestOrigin_Completed::total            0                       # Table walker requests started/completed, data/inst
system.cpu.itb.stage2_mmu.stage2_tlb.walker.requestOrigin::total            0                       # Table walker requests started/completed, data/inst
system.cpu.itb.stage2_mmu.stage2_tlb.walker.power_state.pwrStateResidencyTicks::UNDEFINED 165366198000                       # Cumulative time (in ticks) in various power states
system.cpu.itb.walker.walks                         0                       # Table walker walks requested
system.cpu.itb.walker.requestOrigin_Requested::Data            0                       # Table walker requests started/completed, data/inst
system.cpu.itb.walker.requestOrigin_Requested::Inst            0                       # Table walker requests started/completed, data/inst
system.cpu.itb.walker.requestOrigin_Requested::total            0                       # Table walker requests started/completed, data/inst
system.cpu.itb.walker.requestOrigin_Completed::Data            0                       # Table walker requests started/completed, data/inst
system.cpu.itb.walker.requestOrigin_Completed::Inst            0                       # Table walker requests started/completed, data/inst
system.cpu.itb.walker.requestOrigin_Completed::total            0                       # Table walker requests started/completed, data/inst
system.cpu.itb.walker.requestOrigin::total            0                       # Table walker requests started/completed, data/inst
system.cpu.itb.walker.power_state.pwrStateResidencyTicks::UNDEFINED 165366198000                       # Cumulative time (in ticks) in various power states
system.cpu.power_state.pwrStateResidencyTicks::ON 165366198000                       # Cumulative time (in ticks) in various power states
system.cpu.thread17522.numInsts             100000000                       # Number of Instructions committed
system.cpu.thread17522.numOps               100003630                       # Number of Ops committed
system.cpu.thread17522.numMemRefs                   0                       # Number of Memory References
system.cpu_clk_domain.clock                      1000                       # Clock period in ticks
system.cpu_voltage_domain.voltage                   1                       # Voltage in Volts
system.l2.demand_hits::.cpu.inst                    9                       # number of demand (read+write) hits
system.l2.demand_hits::.cpu.data                   21                       # number of demand (read+write) hits
system.l2.demand_hits::total                       30                       # number of demand (read+write) hits
system.l2.overall_hits::.cpu.inst                   9                       # number of overall hits
system.l2.overall_hits::.cpu.data                  21                       # number of overall hits
system.l2.overall_hits::total                      30                       # number of overall hits
system.l2.demand_misses::.cpu.inst                237                       # number of demand (read+write) misses
system.l2.demand_misses::.cpu.data             371939                       # number of demand (read+write) misses
system.l2.demand_misses::total                 372176                       # number of demand (read+write) misses
system.l2.overall_misses::.cpu.inst               237                       # number of overall misses
system.l2.overall_misses::.cpu.data            371939                       # number of overall misses
system.l2.overall_misses::total                372176                       # number of overall misses
system.l2.demand_miss_latency::.cpu.inst     27736000                       # number of demand (read+write) miss cycles
system.l2.demand_miss_latency::.cpu.data  44517932000                       # number of demand (read+write) miss cycles
system.l2.demand_miss_latency::total      44545668000                       # number of demand (read+write) miss cycles
system.l2.overall_miss_latency::.cpu.inst     27736000                       # number of overall miss cycles
system.l2.overall_miss_latency::.cpu.data  44517932000                       # number of overall miss cycles
system.l2.overall_miss_latency::total     44545668000                       # number of overall miss cycles
system.l2.demand_accesses::.cpu.inst              246                       # number of demand (read+write) accesses
system.l2.demand_accesses::.cpu.data           371960                       # number of demand (read+write) accesses
system.l2.demand_accesses::total               372206                       # number of demand (read+write) accesses
system.l2.overall_accesses::.cpu.inst             246                       # number of overall (read+write) accesses
system.l2.overall_accesses::.cpu.data          371960                       # number of overall (read+write) accesses
system.l2.overall_accesses::total              372206                       # number of overall (read+write) accesses
system.l2.demand_miss_rate::.cpu.inst        0.963415                       # miss rate for demand accesses
system.l2.demand_miss_rate::.cpu.data        0.999944                       # miss rate for demand accesses
system.l2.demand_miss_rate::total            0.999919                       # miss rate for demand accesses
system.l2.overall_miss_rate::.cpu.inst       0.963415                       # miss rate for overall accesses
system.l2.overall_miss_rate::.cpu.data       0.999944                       # miss rate for overall accesses
system.l2.overall_miss_rate::total           0.999919                       # miss rate for overall accesses
system.l2.demand_avg_miss_latency::.cpu.inst 117029.535865                       # average overall miss latency
system.l2.demand_avg_miss_latency::.cpu.data 119691.487045                       # average overall miss latency
system.l2.demand_avg_miss_latency::total 119689.791926                       # average overall miss latency
system.l2.overall_avg_miss_latency::.cpu.inst 117029.535865                       # average overall miss latency
system.l2.overall_avg_miss_latency::.cpu.data 119691.487045                       # average overall miss latency
system.l2.overall_avg_miss_latency::total 119689.791926                       # average overall miss latency
system.l2.blocked_cycles::no_mshrs                  0                       # number of cycles access was blocked
system.l2.blocked_cycles::no_targets                0                       # number of cycles access was blocked
system.l2.blocked::no_mshrs                         0                       # number of cycles access was blocked
system.l2.blocked::no_targets                       0                       # number of cycles access was blocked
system.l2.avg_blocked_cycles::no_mshrs            nan                       # average number of cycles each access was blocked
system.l2.avg_blocked_cycles::no_targets          nan                       # average number of cycles each access was blocked
system.l2.writebacks::.writebacks              355512                       # number of writebacks
system.l2.writebacks::total                    355512                       # number of writebacks
system.l2.demand_mshr_hits::.cpu.data               5                       # number of demand (read+write) MSHR hits
system.l2.demand_mshr_hits::total                   5                       # number of demand (read+write) MSHR hits
system.l2.overall_mshr_hits::.cpu.data              5                       # number of overall MSHR hits
system.l2.overall_mshr_hits::total                  5                       # number of overall MSHR hits
system.l2.demand_mshr_misses::.cpu.inst           237                       # number of demand (read+write) MSHR misses
system.l2.demand_mshr_misses::.cpu.data        371934                       # number of demand (read+write) MSHR misses
system.l2.demand_mshr_misses::total            372171                       # number of demand (read+write) MSHR misses
system.l2.overall_mshr_misses::.cpu.inst          237                       # number of overall MSHR misses
system.l2.overall_mshr_misses::.cpu.data       371934                       # number of overall MSHR misses
system.l2.overall_mshr_misses::total           372171                       # number of overall MSHR misses
system.l2.demand_mshr_miss_latency::.cpu.inst     22996000                       # number of demand (read+write) MSHR miss cycles
system.l2.demand_mshr_miss_latency::.cpu.data  37078506000                       # number of demand (read+write) MSHR miss cycles
system.l2.demand_mshr_miss_latency::total  37101502000                       # number of demand (read+write) MSHR miss cycles
system.l2.overall_mshr_miss_latency::.cpu.inst     22996000                       # number of overall MSHR miss cycles
system.l2.overall_mshr_miss_latency::.cpu.data  37078506000                       # number of overall MSHR miss cycles
system.l2.overall_mshr_miss_latency::total  37101502000                       # number of overall MSHR miss cycles
system.l2.demand_mshr_miss_rate::.cpu.inst     0.963415                       # mshr miss rate for demand accesses
system.l2.demand_mshr_miss_rate::.cpu.data     0.999930                       # mshr miss rate for demand accesses
system.l2.demand_mshr_miss_rate::total       0.999906                       # mshr miss rate for demand accesses
system.l2.overall_mshr_miss_rate::.cpu.inst     0.963415                       # mshr miss rate for overall accesses
system.l2.overall_mshr_miss_rate::.cpu.data     0.999930                       # mshr miss rate for overall accesses
system.l2.overall_mshr_miss_rate::total      0.999906                       # mshr miss rate for overall accesses
system.l2.demand_avg_mshr_miss_latency::.cpu.inst 97029.535865                       # average overall mshr miss latency
system.l2.demand_avg_mshr_miss_latency::.cpu.data 99691.090355                       # average overall mshr miss latency
system.l2.demand_avg_mshr_miss_latency::total 99689.395466                       # average overall mshr miss latency
system.l2.overall_avg_mshr_miss_latency::.cpu.inst 97029.535865                       # average overall mshr miss latency
system.l2.overall_avg_mshr_miss_latency::.cpu.data 99691.090355                       # average overall mshr miss latency
system.l2.overall_avg_mshr_miss_latency::total 99689.395466                       # average overall mshr miss latency
system.l2.replacements                         355787                       # number of replacements
system.l2.WritebackDirty_hits::.writebacks       371386                       # number of WritebackDirty hits
system.l2.WritebackDirty_hits::total           371386                       # number of WritebackDirty hits
system.l2.WritebackDirty_accesses::.writebacks       371386                       # number of WritebackDirty accesses(hits+misses)
system.l2.WritebackDirty_accesses::total       371386                       # number of WritebackDirty accesses(hits+misses)
system.l2.WritebackClean_hits::.writebacks           18                       # number of WritebackClean hits
system.l2.WritebackClean_hits::total               18                       # number of WritebackClean hits
system.l2.WritebackClean_accesses::.writebacks           18                       # number of WritebackClean accesses(hits+misses)
system.l2.WritebackClean_accesses::total           18                       # number of WritebackClean accesses(hits+misses)
system.l2.ReadExReq_misses::.cpu.data          371886                       # number of ReadExReq misses
system.l2.ReadExReq_misses::total              371886                       # number of ReadExReq misses
system.l2.ReadExReq_miss_latency::.cpu.data  44511605000                       # number of ReadExReq miss cycles
system.l2.ReadExReq_miss_latency::total   44511605000                       # number of ReadExReq miss cycles
system.l2.ReadExReq_accesses::.cpu.data        371886                       # number of ReadExReq accesses(hits+misses)
system.l2.ReadExReq_accesses::total            371886                       # number of ReadExReq accesses(hits+misses)
system.l2.ReadExReq_miss_rate::.cpu.data            1                       # miss rate for ReadExReq accesses
system.l2.ReadExReq_miss_rate::total                1                       # miss rate for ReadExReq accesses
system.l2.ReadExReq_avg_miss_latency::.cpu.data 119691.531814                       # average ReadExReq miss latency
system.l2.ReadExReq_avg_miss_latency::total 119691.531814                       # average ReadExReq miss latency
system.l2.ReadExReq_mshr_misses::.cpu.data       371886                       # number of ReadExReq MSHR misses
system.l2.ReadExReq_mshr_misses::total         371886                       # number of ReadExReq MSHR misses
system.l2.ReadExReq_mshr_miss_latency::.cpu.data  37073885000                       # number of ReadExReq MSHR miss cycles
system.l2.ReadExReq_mshr_miss_latency::total  37073885000                       # number of ReadExReq MSHR miss cycles
system.l2.ReadExReq_mshr_miss_rate::.cpu.data            1                       # mshr miss rate for ReadExReq accesses
system.l2.ReadExReq_mshr_miss_rate::total            1                       # mshr miss rate for ReadExReq accesses
system.l2.ReadExReq_avg_mshr_miss_latency::.cpu.data 99691.531814                       # average ReadExReq mshr miss latency
system.l2.ReadExReq_avg_mshr_miss_latency::total 99691.531814                       # average ReadExReq mshr miss latency
system.l2.ReadCleanReq_hits::.cpu.inst              9                       # number of ReadCleanReq hits
system.l2.ReadCleanReq_hits::total                  9                       # number of ReadCleanReq hits
system.l2.ReadCleanReq_misses::.cpu.inst          237                       # number of ReadCleanReq misses
system.l2.ReadCleanReq_misses::total              237                       # number of ReadCleanReq misses
system.l2.ReadCleanReq_miss_latency::.cpu.inst     27736000                       # number of ReadCleanReq miss cycles
system.l2.ReadCleanReq_miss_latency::total     27736000                       # number of ReadCleanReq miss cycles
system.l2.ReadCleanReq_accesses::.cpu.inst          246                       # number of ReadCleanReq accesses(hits+misses)
system.l2.ReadCleanReq_accesses::total            246                       # number of ReadCleanReq accesses(hits+misses)
system.l2.ReadCleanReq_miss_rate::.cpu.inst     0.963415                       # miss rate for ReadCleanReq accesses
system.l2.ReadCleanReq_miss_rate::total      0.963415                       # miss rate for ReadCleanReq accesses
system.l2.ReadCleanReq_avg_miss_latency::.cpu.inst 117029.535865                       # average ReadCleanReq miss latency
system.l2.ReadCleanReq_avg_miss_latency::total 117029.535865                       # average ReadCleanReq miss latency
system.l2.ReadCleanReq_mshr_misses::.cpu.inst          237                       # number of ReadCleanReq MSHR misses
system.l2.ReadCleanReq_mshr_misses::total          237                       # number of ReadCleanReq MSHR misses
system.l2.ReadCleanReq_mshr_miss_latency::.cpu.inst     22996000                       # number of ReadCleanReq MSHR miss cycles
system.l2.ReadCleanReq_mshr_miss_latency::total     22996000                       # number of ReadCleanReq MSHR miss cycles
system.l2.ReadCleanReq_mshr_miss_rate::.cpu.inst     0.963415                       # mshr miss rate for ReadCleanReq accesses
system.l2.ReadCleanReq_mshr_miss_rate::total     0.963415                       # mshr miss rate for ReadCleanReq accesses
system.l2.ReadCleanReq_avg_mshr_miss_latency::.cpu.inst 97029.535865                       # average ReadCleanReq mshr miss latency
system.l2.ReadCleanReq_avg_mshr_miss_latency::total 97029.535865                       # average ReadCleanReq mshr miss latency
system.l2.ReadSharedReq_hits::.cpu.data            21                       # number of ReadSharedReq hits
system.l2.ReadSharedReq_hits::total                21                       # number of ReadSharedReq hits
system.l2.ReadSharedReq_misses::.cpu.data           53                       # number of ReadSharedReq misses
system.l2.ReadSharedReq_misses::total              53                       # number of ReadSharedReq misses
system.l2.ReadSharedReq_miss_latency::.cpu.data      6327000                       # number of ReadSharedReq miss cycles
system.l2.ReadSharedReq_miss_latency::total      6327000                       # number of ReadSharedReq miss cycles
system.l2.ReadSharedReq_accesses::.cpu.data           74                       # number of ReadSharedReq accesses(hits+misses)
system.l2.ReadSharedReq_accesses::total            74                       # number of ReadSharedReq accesses(hits+misses)
system.l2.ReadSharedReq_miss_rate::.cpu.data     0.716216                       # miss rate for ReadSharedReq accesses
system.l2.ReadSharedReq_miss_rate::total     0.716216                       # miss rate for ReadSharedReq accesses
system.l2.ReadSharedReq_avg_miss_latency::.cpu.data 119377.358491                       # average ReadSharedReq miss latency
system.l2.ReadSharedReq_avg_miss_latency::total 119377.358491                       # average ReadSharedReq miss latency
system.l2.ReadSharedReq_mshr_hits::.cpu.data            5                       # number of ReadSharedReq MSHR hits
system.l2.ReadSharedReq_mshr_hits::total            5                       # number of ReadSharedReq MSHR hits
system.l2.ReadSharedReq_mshr_misses::.cpu.data           48                       # number of ReadSharedReq MSHR misses
system.l2.ReadSharedReq_mshr_misses::total           48                       # number of ReadSharedReq MSHR misses
system.l2.ReadSharedReq_mshr_miss_latency::.cpu.data      4621000                       # number of ReadSharedReq MSHR miss cycles
system.l2.ReadSharedReq_mshr_miss_latency::total      4621000                       # number of ReadSharedReq MSHR miss cycles
system.l2.ReadSharedReq_mshr_miss_rate::.cpu.data     0.648649                       # mshr miss rate for ReadSharedReq accesses
system.l2.ReadSharedReq_mshr_miss_rate::total     0.648649                       # mshr miss rate for ReadSharedReq accesses
system.l2.ReadSharedReq_avg_mshr_miss_latency::.cpu.data 96270.833333                       # average ReadSharedReq mshr miss latency
system.l2.ReadSharedReq_avg_mshr_miss_latency::total 96270.833333                       # average ReadSharedReq mshr miss latency
system.l2.power_state.pwrStateResidencyTicks::UNDEFINED 165366198000                       # Cumulative time (in ticks) in various power states
system.l2.tags.tagsinuse                 16036.623580                       # Cycle average of tags in use
system.l2.tags.total_refs                      743639                       # Total number of references to valid blocks.
system.l2.tags.sampled_refs                    372171                       # Sample count of references to valid blocks.
system.l2.tags.avg_refs                      1.998111                       # Average number of references to valid blocks.
system.l2.tags.warmup_cycle                    102000                       # Cycle when the warmup percentage was hit.
system.l2.tags.occ_blocks::.cpu.inst         9.541326                       # Average occupied blocks per requestor
system.l2.tags.occ_blocks::.cpu.data     16027.082254                       # Average occupied blocks per requestor
system.l2.tags.occ_percent::.cpu.inst        0.000582                       # Average percentage of cache occupancy
system.l2.tags.occ_percent::.cpu.data        0.978215                       # Average percentage of cache occupancy
system.l2.tags.occ_percent::total            0.978798                       # Average percentage of cache occupancy
system.l2.tags.occ_task_id_blocks::1024         16384                       # Occupied blocks per task id
system.l2.tags.age_task_id_blocks_1024::0           23                       # Occupied blocks per task id
system.l2.tags.age_task_id_blocks_1024::1          202                       # Occupied blocks per task id
system.l2.tags.age_task_id_blocks_1024::2         2023                       # Occupied blocks per task id
system.l2.tags.age_task_id_blocks_1024::3        14136                       # Occupied blocks per task id
system.l2.tags.occ_task_id_percent::1024            1                       # Percentage of cache occupancy per task id
system.l2.tags.tag_accesses                   6321323                       # Number of tag accesses
system.l2.tags.data_accesses                  6321323                       # Number of data accesses
system.l2.tags.power_state.pwrStateResidencyTicks::UNDEFINED 165366198000                       # Cumulative time (in ticks) in various power states
system.mem_ctrls.avgPriority_.writebacks::samples   1422048.00                       # Average QoS priority value for accepted requests
system.mem_ctrls.avgPriority_.cpu.inst::samples       948.00                       # Average QoS priority value for accepted requests
system.mem_ctrls.avgPriority_.cpu.data::samples   1487736.00                       # Average QoS priority value for accepted requests
system.mem_ctrls.priorityMinLatency      0.000000018750                       # per QoS priority minimum request to response latency (s)
system.mem_ctrls.priorityMaxLatency      0.000052686500                       # per QoS priority maximum request to response latency (s)
system.mem_ctrls.numReadWriteTurnArounds        71101                       # Number of turnarounds from READ to WRITE
system.mem_ctrls.numWriteReadTurnArounds        71102                       # Number of turnarounds from WRITE to READ
system.mem_ctrls.numStayReadState             2258551                       # Number of times bus staying in READ state
system.mem_ctrls.numStayWriteState            1350917                       # Number of times bus staying in WRITE state
system.mem_ctrls.readReqs                      372171                       # Number of read requests accepted
system.mem_ctrls.writeReqs                     355512                       # Number of write requests accepted
system.mem_ctrls.readBursts                   1488684                       # Number of controller read bursts, including those serviced by the write queue
system.mem_ctrls.writeBursts                  1422048                       # Number of controller write bursts, including those merged in the write queue
system.mem_ctrls.servicedByWrQ                      0                       # Number of controller read bursts serviced by the write queue
system.mem_ctrls.mergedWrBursts                     0                       # Number of controller write bursts merged with an existing one
system.mem_ctrls.neitherReadNorWriteReqs            0                       # Number of requests that are neither read nor write
system.mem_ctrls.avgRdQLen                       4.00                       # Average read queue length when enqueuing
system.mem_ctrls.avgWrQLen                      25.93                       # Average write queue length when enqueuing
system.mem_ctrls.numRdRetry                         0                       # Number of times read queue was full causing retry
system.mem_ctrls.numWrRetry                         0                       # Number of times write queue was full causing retry
system.mem_ctrls.readPktSize::0                     0                       # Read request sizes (log2)
system.mem_ctrls.readPktSize::1                     0                       # Read request sizes (log2)
system.mem_ctrls.readPktSize::2                     0                       # Read request sizes (log2)
system.mem_ctrls.readPktSize::3                     0                       # Read request sizes (log2)
system.mem_ctrls.readPktSize::4                     0                       # Read request sizes (log2)
system.mem_ctrls.readPktSize::5                     0                       # Read request sizes (log2)
system.mem_ctrls.readPktSize::6               1488684                       # Read request sizes (log2)
system.mem_ctrls.readPktSize::7                     0                       # Read request sizes (log2)
system.mem_ctrls.readPktSize::8                     0                       # Read request sizes (log2)
system.mem_ctrls.writePktSize::0                    0                       # Write request sizes (log2)
system.mem_ctrls.writePktSize::1                    0                       # Write request sizes (log2)
system.mem_ctrls.writePktSize::2                    0                       # Write request sizes (log2)
system.mem_ctrls.writePktSize::3                    0                       # Write request sizes (log2)
system.mem_ctrls.writePktSize::4                    0                       # Write request sizes (log2)
system.mem_ctrls.writePktSize::5                    0                       # Write request sizes (log2)
system.mem_ctrls.writePktSize::6              1422048                       # Write request sizes (log2)
system.mem_ctrls.writePktSize::7                    0                       # Write request sizes (log2)
system.mem_ctrls.writePktSize::8                    0                       # Write request sizes (log2)
system.mem_ctrls.rdQLenPdf::0                  372142                       # What read queue length does an incoming req see
system.mem_ctrls.rdQLenPdf::1                  372143                       # What read queue length does an incoming req see
system.mem_ctrls.rdQLenPdf::2                  372144                       # What read queue length does an incoming req see
system.mem_ctrls.rdQLenPdf::3                  372145                       # What read queue length does an incoming req see
system.mem_ctrls.rdQLenPdf::4                      28                       # What read queue length does an incoming req see
system.mem_ctrls.rdQLenPdf::5                      27                       # What read queue length does an incoming req see
system.mem_ctrls.rdQLenPdf::6                      26                       # What read queue length does an incoming req see
system.mem_ctrls.rdQLenPdf::7                      25                       # What read queue length does an incoming req see
system.mem_ctrls.rdQLenPdf::8                       1                       # What read queue length does an incoming req see
system.mem_ctrls.rdQLenPdf::9                       1                       # What read queue length does an incoming req see
system.mem_ctrls.rdQLenPdf::10                      1                       # What read queue length does an incoming req see
system.mem_ctrls.rdQLenPdf::11                      1                       # What read queue length does an incoming req see
system.mem_ctrls.rdQLenPdf::12                      0                       # What read queue length does an incoming req see
[...]
system.mem_ctrls.dram.bw_write::.writebacks    550360794                       # Write bandwidth from this memory (bytes/s)
system.mem_ctrls.dram.bw_write::total       550360794                       # Write bandwidth from this memory (bytes/s)
system.mem_ctrls.dram.bw_total::.writebacks    550360794                       # Total bandwidth to/from this memory (bytes/s)
system.mem_ctrls.dram.bw_total::.cpu.inst       366895                       # Total bandwidth to/from this memory (bytes/s)
system.mem_ctrls.dram.bw_total::.cpu.data    575783353                       # Total bandwidth to/from this memory (bytes/s)
system.mem_ctrls.dram.bw_total::total      1126511042                       # Total bandwidth to/from this memory (bytes/s)
system.mem_ctrls.dram.readBursts              1488684                       # Number of DRAM read bursts
system.mem_ctrls.dram.writeBursts             1422017                       # Number of DRAM write bursts
system.mem_ctrls.dram.perBankRdBursts::0        93084                       # Per bank write bursts
system.mem_ctrls.dram.perBankRdBursts::1        93012                       # Per bank write bursts
system.mem_ctrls.dram.perBankRdBursts::2        93024                       # Per bank write bursts
system.mem_ctrls.dram.perBankRdBursts::3        92976                       # Per bank write bursts
system.mem_ctrls.dram.perBankRdBursts::4        93024                       # Per bank write bursts
system.mem_ctrls.dram.perBankRdBursts::5        93036                       # Per bank write bursts
system.mem_ctrls.dram.perBankRdBursts::6        93072                       # Per bank write bursts
system.mem_ctrls.dram.perBankRdBursts::7        93088                       # Per bank write bursts
system.mem_ctrls.dram.perBankRdBursts::8        93232                       # Per bank write bursts
system.mem_ctrls.dram.perBankRdBursts::9        93104                       # Per bank write bursts
system.mem_ctrls.dram.perBankRdBursts::10        93000                       # Per bank write bursts
system.mem_ctrls.dram.perBankRdBursts::11        92984                       # Per bank write bursts
system.mem_ctrls.dram.perBankRdBursts::12        93044                       # Per bank write bursts
system.mem_ctrls.dram.perBankRdBursts::13        92988                       # Per bank write bursts
system.mem_ctrls.dram.perBankRdBursts::14        93000                       # Per bank write bursts
system.mem_ctrls.dram.perBankRdBursts::15        93016                       # Per bank write bursts
system.mem_ctrls.dram.perBankWrBursts::0        88840                       # Per bank write bursts
system.mem_ctrls.dram.perBankWrBursts::1        88908                       # Per bank write bursts
system.mem_ctrls.dram.perBankWrBursts::2        88860                       # Per bank write bursts
system.mem_ctrls.dram.perBankWrBursts::3        88856                       # Per bank write bursts
system.mem_ctrls.dram.perBankWrBursts::4        88844                       # Per bank write bursts
system.mem_ctrls.dram.perBankWrBursts::5        88900                       # Per bank write bursts
system.mem_ctrls.dram.perBankWrBursts::6        88960                       # Per bank write bursts
system.mem_ctrls.dram.perBankWrBursts::7        88960                       # Per bank write bursts
system.mem_ctrls.dram.perBankWrBursts::8        88960                       # Per bank write bursts
system.mem_ctrls.dram.perBankWrBursts::9        88937                       # Per bank write bursts
system.mem_ctrls.dram.perBankWrBursts::10        88832                       # Per bank write bursts
system.mem_ctrls.dram.perBankWrBursts::11        88832                       # Per bank write bursts
system.mem_ctrls.dram.perBankWrBursts::12        88832                       # Per bank write bursts
system.mem_ctrls.dram.perBankWrBursts::13        88832                       # Per bank write bursts
system.mem_ctrls.dram.perBankWrBursts::14        88832                       # Per bank write bursts
system.mem_ctrls.dram.perBankWrBursts::15        88832                       # Per bank write bursts
system.mem_ctrls.dram.totQLat             32823577250                       # Total ticks spent queuing
system.mem_ctrls.dram.totBusLat            7443420000                       # Total ticks spent in databus transfers
system.mem_ctrls.dram.totMemAccLat        60736402250                       # Total ticks spent from burst creation until serviced by the DRAM
system.mem_ctrls.dram.avgQLat                22048.72                       # Average queueing delay per DRAM burst
system.mem_ctrls.dram.avgBusLat               5000.00                       # Average bus latency per DRAM burst
system.mem_ctrls.dram.avgMemAccLat           40798.72                       # Average memory access latency per DRAM burst
system.mem_ctrls.dram.readRowHits             1339763                       # Number of row buffer hits during reads
system.mem_ctrls.dram.writeRowHits            1279179                       # Number of row buffer hits during writes
system.mem_ctrls.dram.readRowHitRate            90.00                       # Row buffer hit rate for reads
system.mem_ctrls.dram.writeRowHitRate           89.96                       # Row buffer hit rate for writes
system.mem_ctrls.dram.bytesPerActivate::samples       291757                       # Bytes accessed per row activation
system.mem_ctrls.dram.bytesPerActivate::mean   638.490579                       # Bytes accessed per row activation
system.mem_ctrls.dram.bytesPerActivate::gmean   519.176217                       # Bytes accessed per row activation
system.mem_ctrls.dram.bytesPerActivate::stdev   362.154265                       # Bytes accessed per row activation
system.mem_ctrls.dram.bytesPerActivate::0-127         3176      1.09%      1.09% # Bytes accessed per row activation
system.mem_ctrls.dram.bytesPerActivate::128-255         3182      1.09%      2.18% # Bytes accessed per row activation
system.mem_ctrls.dram.bytesPerActivate::256-383       118425     40.59%     42.77% # Bytes accessed per row activation
system.mem_ctrls.dram.bytesPerActivate::384-511         2222      0.76%     43.53% # Bytes accessed per row activation
system.mem_ctrls.dram.bytesPerActivate::512-639        19691      6.75%     50.28% # Bytes accessed per row activation
system.mem_ctrls.dram.bytesPerActivate::640-767         2221      0.76%     51.04% # Bytes accessed per row activation
system.mem_ctrls.dram.bytesPerActivate::768-895        15783      5.41%     56.45% # Bytes accessed per row activation
system.mem_ctrls.dram.bytesPerActivate::896-1023         3491      1.20%     57.65% # Bytes accessed per row activation
system.mem_ctrls.dram.bytesPerActivate::1024-1151       123566     42.35%    100.00% # Bytes accessed per row activation
system.mem_ctrls.dram.bytesPerActivate::total       291757                       # Bytes accessed per row activation
system.mem_ctrls.dram.bytesRead              95275776                       # Total number of bytes read from DRAM
system.mem_ctrls.dram.bytesWritten           91009088                       # Total number of bytes written to DRAM
system.mem_ctrls.dram.avgRdBW              576.150248                       # Average DRAM read bandwidth in MiBytes/s
system.mem_ctrls.dram.avgWrBW              550.348796                       # Average DRAM write bandwidth in MiBytes/s
system.mem_ctrls.dram.peakBW                 12800.00                       # Theoretical peak bandwidth in MiByte/s
system.mem_ctrls.dram.busUtil                    8.80                       # Data bus utilization in percentage
system.mem_ctrls.dram.busUtilRead                4.50                       # Data bus utilization in percentage for reads
system.mem_ctrls.dram.busUtilWrite               4.30                       # Data bus utilization in percentage for writes
system.mem_ctrls.dram.pageHitRate               89.98                       # Row buffer hit rate, read and write combined
system.mem_ctrls.dram.power_state.pwrStateResidencyTicks::UNDEFINED 165366198000                       # Cumulative time (in ticks) in various power states
system.mem_ctrls.dram.rank0.actEnergy      1041676020                       # Energy for activate commands per rank (pJ)
system.mem_ctrls.dram.rank0.preEnergy       553663935                       # Energy for precharge commands per rank (pJ)
system.mem_ctrls.dram.rank0.readEnergy     5314416240                       # Energy for read commands per rank (pJ)
system.mem_ctrls.dram.rank0.writeEnergy    3712088160                       # Energy for write commands per rank (pJ)
system.mem_ctrls.dram.rank0.refreshEnergy 13053724320.000002                       # Energy for refresh commands per rank (pJ)
system.mem_ctrls.dram.rank0.actBackEnergy  36635925210                       # Energy for active background per rank (pJ)
system.mem_ctrls.dram.rank0.preBackEnergy  32649314880                       # Energy for precharge background per rank (pJ)
system.mem_ctrls.dram.rank0.actPowerDownEnergy            0                       # Energy for active power-down per rank (pJ)
system.mem_ctrls.dram.rank0.prePowerDownEnergy            0                       # Energy for precharge power-down per rank (pJ)
system.mem_ctrls.dram.rank0.selfRefreshEnergy            0                       # Energy for self refresh per rank (pJ)
system.mem_ctrls.dram.rank0.totalEnergy   92960808765                       # Total energy per rank (pJ)
system.mem_ctrls.dram.rank0.averagePower   562.151213                       # Core power per rank (mW)
system.mem_ctrls.dram.rank0.totalIdleTime            0                       # Total Idle time Per DRAM Rank
system.mem_ctrls.dram.rank0.pwrStateTime::IDLE  83525275000                       # Time in different power states
system.mem_ctrls.dram.rank0.pwrStateTime::REF   5521880000                       # Time in different power states
system.mem_ctrls.dram.rank0.pwrStateTime::SREF            0                       # Time in different power states
system.mem_ctrls.dram.rank0.pwrStateTime::PRE_PDN            0                       # Time in different power states
system.mem_ctrls.dram.rank0.pwrStateTime::ACT  76319043000                       # Time in different power states
system.mem_ctrls.dram.rank0.pwrStateTime::ACT_PDN            0                       # Time in different power states
system.mem_ctrls.dram.rank1.actEnergy      1041483240                       # Energy for activate commands per rank (pJ)
system.mem_ctrls.dram.rank1.preEnergy       553553880                       # Energy for precharge commands per rank (pJ)
system.mem_ctrls.dram.rank1.readEnergy     5314787520                       # Energy for read commands per rank (pJ)
system.mem_ctrls.dram.rank1.writeEnergy    3710819700                       # Energy for write commands per rank (pJ)
system.mem_ctrls.dram.rank1.refreshEnergy 13053724320.000002                       # Energy for refresh commands per rank (pJ)
system.mem_ctrls.dram.rank1.actBackEnergy  36638021670                       # Energy for active background per rank (pJ)
system.mem_ctrls.dram.rank1.preBackEnergy  32647549440                       # Energy for precharge background per rank (pJ)
system.mem_ctrls.dram.rank1.actPowerDownEnergy            0                       # Energy for active power-down per rank (pJ)
system.mem_ctrls.dram.rank1.prePowerDownEnergy            0                       # Energy for precharge power-down per rank (pJ)
system.mem_ctrls.dram.rank1.selfRefreshEnergy            0                       # Energy for self refresh per rank (pJ)
system.mem_ctrls.dram.rank1.totalEnergy   92959939770                       # Total energy per rank (pJ)
system.mem_ctrls.dram.rank1.averagePower   562.145958                       # Core power per rank (mW)
system.mem_ctrls.dram.rank1.totalIdleTime            0                       # Total Idle time Per DRAM Rank
system.mem_ctrls.dram.rank1.pwrStateTime::IDLE  83520640500                       # Time in different power states
system.mem_ctrls.dram.rank1.pwrStateTime::REF   5521880000                       # Time in different power states
system.mem_ctrls.dram.rank1.pwrStateTime::SREF            0                       # Time in different power states
system.mem_ctrls.dram.rank1.pwrStateTime::PRE_PDN            0                       # Time in different power states
system.mem_ctrls.dram.rank1.pwrStateTime::ACT  76323677500                       # Time in different power states
system.mem_ctrls.dram.rank1.pwrStateTime::ACT_PDN            0                       # Time in different power states
system.mem_ctrls.power_state.pwrStateResidencyTicks::UNDEFINED 165366198000                       # Cumulative time (in ticks) in various power states
system.membus.trans_dist::ReadResp                285                       # Transaction distribution
system.membus.trans_dist::WritebackDirty       355512                       # Transaction distribution
system.membus.trans_dist::CleanEvict               49                       # Transaction distribution
system.membus.trans_dist::ReadExReq            371886                       # Transaction distribution
system.membus.trans_dist::ReadExResp           371886                       # Transaction distribution
system.membus.trans_dist::ReadSharedReq           285                       # Transaction distribution
system.membus.pkt_count_system.l2.mem_side_port::system.mem_ctrls.port      1099903                       # Packet count per connected requestor and responder (bytes)
system.membus.pkt_count::total                1099903                       # Packet count per connected requestor and responder (bytes)
system.membus.pkt_size_system.l2.mem_side_port::system.mem_ctrls.port    186286848                       # Cumulative packet size per connected requestor and responder (bytes)
system.membus.pkt_size::total               186286848                       # Cumulative packet size per connected requestor and responder (bytes)
system.membus.snoops                                0                       # Total snoops (count)
system.membus.snoopTraffic                          0                       # Total snoop traffic (bytes)
system.membus.snoop_fanout::samples            372171                       # Request fanout histogram
system.membus.snoop_fanout::mean                    0                       # Request fanout histogram
system.membus.snoop_fanout::stdev                   0                       # Request fanout histogram
system.membus.snoop_fanout::underflows              0      0.00%      0.00% # Request fanout histogram
system.membus.snoop_fanout::0                  372171    100.00%    100.00% # Request fanout histogram
system.membus.snoop_fanout::1                       0      0.00%    100.00% # Request fanout histogram
system.membus.snoop_fanout::overflows               0      0.00%    100.00% # Request fanout histogram
system.membus.snoop_fanout::min_value               0                       # Request fanout histogram
system.membus.snoop_fanout::max_value               0                       # Request fanout histogram
system.membus.snoop_fanout::total              372171                       # Request fanout histogram
system.membus.power_state.pwrStateResidencyTicks::UNDEFINED 165366198000                       # Cumulative time (in ticks) in various power states
system.membus.reqLayer0.occupancy          6415924000                       # Layer occupancy (ticks)
system.membus.reqLayer0.utilization               3.9                       # Layer utilization (%)
system.membus.respLayer1.occupancy         6471441500                       # Layer occupancy (ticks)
system.membus.respLayer1.utilization              3.9                       # Layer utilization (%)
system.tol2bus.trans_dist::ReadResp               320                       # Transaction distribution
system.tol2bus.trans_dist::WritebackDirty       726898                       # Transaction distribution
system.tol2bus.trans_dist::WritebackClean           21                       # Transaction distribution
system.tol2bus.trans_dist::CleanEvict             337                       # Transaction distribution
system.tol2bus.trans_dist::ReadExReq           371886                       # Transaction distribution
system.tol2bus.trans_dist::ReadExResp          371886                       # Transaction distribution
system.tol2bus.trans_dist::ReadCleanReq           246                       # Transaction distribution
system.tol2bus.trans_dist::ReadSharedReq           74                       # Transaction distribution
system.tol2bus.pkt_count_system.cpu.icache.mem_side_port::system.l2.cpu_side_port          513                       # Packet count per connected requestor and responder (bytes)
system.tol2bus.pkt_count_system.cpu.dcache.mem_side_port::system.l2.cpu_side_port      1115368                       # Packet count per connected requestor and responder (bytes)
system.tol2bus.pkt_count::total               1115881                       # Packet count per connected requestor and responder (bytes)
system.tol2bus.pkt_size_system.cpu.icache.mem_side_port::system.l2.cpu_side_port        68352                       # Cumulative packet size per connected requestor and responder (bytes)
system.tol2bus.pkt_size_system.cpu.dcache.mem_side_port::system.l2.cpu_side_port    190296576                       # Cumulative packet size per connected requestor and responder (bytes)
system.tol2bus.pkt_size::total              190364928                       # Cumulative packet size per connected requestor and responder (bytes)
system.tol2bus.snoops                          355787                       # Total snoops (count)
system.tol2bus.snoopTraffic                  91011072                       # Total snoop traffic (bytes)
system.tol2bus.snoop_fanout::samples           727993                       # Request fanout histogram
system.tol2bus.snoop_fanout::mean            0.000356                       # Request fanout histogram
system.tol2bus.snoop_fanout::stdev           0.018931                       # Request fanout histogram
system.tol2bus.snoop_fanout::underflows             0      0.00%      0.00% # Request fanout histogram
system.tol2bus.snoop_fanout::0                 727735     99.96%     99.96% # Request fanout histogram
system.tol2bus.snoop_fanout::1                    257      0.04%    100.00% # Request fanout histogram
system.tol2bus.snoop_fanout::2                      1      0.00%    100.00% # Request fanout histogram
system.tol2bus.snoop_fanout::overflows              0      0.00%    100.00% # Request fanout histogram
system.tol2bus.snoop_fanout::min_value              0                       # Request fanout histogram
system.tol2bus.snoop_fanout::max_value              2                       # Request fanout histogram
system.tol2bus.snoop_fanout::total             727993                       # Request fanout histogram
system.tol2bus.power_state.pwrStateResidencyTicks::UNDEFINED 165366198000                       # Cumulative time (in ticks) in various power states
system.tol2bus.reqLayer0.occupancy         3714931000                       # Layer occupancy (ticks)
system.tol2bus.reqLayer0.utilization              2.2                       # Layer utilization (%)
system.tol2bus.respLayer0.occupancy           2214000                       # Layer occupancy (ticks)
system.tol2bus.respLayer0.utilization             0.0                       # Layer utilization (%)
system.tol2bus.respLayer1.occupancy        3347644995                       # Layer occupancy (ticks)
system.tol2bus.respLayer1.utilization             2.0                       # Layer utilization (%)
system.voltage_domain.voltage                       1                       # Voltage in Volts

---------- End Simulation Statistics   ----------
