
---------- Begin Simulation Statistics ----------
final_tick                                80082918500                       # Number of ticks from beginning of simulation (restored from checkpoints and never reset)
host_inst_rate                                 449165                       # Simulator instruction rate (inst/s)
host_mem_usage                                 668144                       # Number of bytes of host memory used
host_op_rate                                   450047                       # Simulator op (including micro ops) rate (op/s)
host_seconds                                   222.64                       # Real time elapsed on the host
host_tick_rate                              359704720                       # Simulator tick rate (ticks/s)
sim_freq                                 1000000000000                       # Frequency of simulated ticks
sim_insts                                   100000001                       # Number of instructions simulated
sim_ops                                     100196356                       # Number of ops (including micro ops) simulated
sim_seconds                                  0.080083                       # Number of seconds simulated
sim_ticks                                 80082918500                       # Number of ticks simulated
system.cpu.committedInsts                   100000001                       # Number of instructions committed
system.cpu.committedOps                     100196356                       # Number of ops (including micro ops) committed
system.cpu.cpi                               1.601658                       # CPI: cycles per instruction
system.cpu.discardedOps                        191015                       # Number of ops (including micro ops) which were discarded before commit
system.cpu.idleCycles                        27872471                       # Total number of cycles that the object has spent stopped
system.cpu.ipc                               0.624353                       # IPC: instructions per cycle
system.cpu.numCycles                        160165837                       # number of cpu cycles simulated
system.cpu.numFetchSuspends                         0                       # Number of times Execute suspended instruction fetching
system.cpu.numWorkItemsCompleted                    0                       # number of work items this cpu completed
system.cpu.numWorkItemsStarted                      0                       # number of work items this cpu started
system.cpu.op_class_0::No_OpClass                   0      0.00%      0.00% # Class of committed instruction
system.cpu.op_class_0::IntAlu                46526863     46.44%     46.44% # Class of committed instruction
system.cpu.op_class_0::IntMult                  20723      0.02%     46.46% # Class of committed instruction
system.cpu.op_class_0::IntDiv                       0      0.00%     46.46% # Class of committed instruction
system.cpu.op_class_0::FloatAdd                     0      0.00%     46.46% # Class of committed instruction
system.cpu.op_class_0::FloatCmp                     0      0.00%     46.46% # Class of committed instruction
system.cpu.op_class_0::FloatCvt                     0      0.00%     46.46% # Class of committed instruction
system.cpu.op_class_0::FloatMult                    0      0.00%     46.46% # Class of committed instruction
system.cpu.op_class_0::FloatMultAcc                 0      0.00%     46.46% # Class of committed instruction
system.cpu.op_class_0::FloatDiv                     0      0.00%     46.46% # Class of committed instruction
system.cpu.op_class_0::FloatMisc                    0      0.00%     46.46% # Class of committed instruction
system.cpu.op_class_0::FloatSqrt                    0      0.00%     46.46% # Class of committed instruction
system.cpu.op_class_0::SimdAdd                      0      0.00%     46.46% # Class of committed instruction
system.cpu.op_class_0::SimdAddAcc                   0      0.00%     46.46% # Class of committed instruction
system.cpu.op_class_0::SimdAlu                      0      0.00%     46.46% # Class of committed instruction
system.cpu.op_class_0::SimdCmp                      0      0.00%     46.46% # Class of committed instruction
system.cpu.op_class_0::SimdCvt                      0      0.00%     46.46% # Class of committed instruction
system.cpu.op_class_0::SimdMisc                     0      0.00%     46.46% # Class of committed instruction
system.cpu.op_class_0::SimdMult                     0      0.00%     46.46% # Class of committed instruction
system.cpu.op_class_0::SimdMultAcc                  0      0.00%     46.46% # Class of committed instruction
system.cpu.op_class_0::SimdShift                    0      0.00%     46.46% # Class of committed instruction
system.cpu.op_class_0::SimdShiftAcc                 0      0.00%     46.46% # Class of committed instruction
system.cpu.op_class_0::SimdDiv                      0      0.00%     46.46% # Class of committed instruction
system.cpu.op_class_0::SimdSqrt                     0      0.00%     46.46% # Class of committed instruction
system.cpu.op_class_0::SimdFloatAdd                 0      0.00%     46.46% # Class of committed instruction
system.cpu.op_class_0::SimdFloatAlu                 0      0.00%     46.46% # Class of committed instruction
system.cpu.op_class_0::SimdFloatCmp                 0      0.00%     46.46% # Class of committed instruction
system.cpu.op_class_0::SimdFloatCvt                 0      0.00%     46.46% # Class of committed instruction
system.cpu.op_class_0::SimdFloatDiv                 0      0.00%     46.46% # Class of committed instruction
system.cpu.op_class_0::SimdFloatMisc               18      0.00%     46.46% # Class of committed instruction
system.cpu.op_class_0::SimdFloatMult                0      0.00%     46.46% # Class of committed instruction
system.cpu.op_class_0::SimdFloatMultAcc             0      0.00%     46.46% # Class of committed instruction
system.cpu.op_class_0::SimdFloatSqrt                0      0.00%     46.46% # Class of committed instruction
system.cpu.op_class_0::SimdReduceAdd                0      0.00%     46.46% # Class of committed instruction
system.cpu.op_class_0::SimdReduceAlu                0      0.00%     46.46% # Class of committed instruction
system.cpu.op_class_0::SimdReduceCmp                0      0.00%     46.46% # Class of committed instruction
system.cpu.op_class_0::SimdFloatReduceAdd            0      0.00%     46.46% # Class of committed instruction
system.cpu.op_class_0::SimdFloatReduceCmp            0      0.00%     46.46% # Class of committed instruction
system.cpu.op_class_0::SimdAes                      0      0.00%     46.46% # Class of committed instruction
system.cpu.op_class_0::SimdAesMix                   0      0.00%     46.46% # Class of committed instruction
system.cpu.op_class_0::SimdSha1Hash                 0      0.00%     46.46% # Class of committed instruction
system.cpu.op_class_0::SimdSha1Hash2                0      0.00%     46.46% # Class of committed instruction
system.cpu.op_class_0::SimdSha256Hash               0      0.00%     46.46% # Class of committed instruction
system.cpu.op_class_0::SimdSha256Hash2              0      0.00%     46.46% # Class of committed instruction
system.cpu.op_class_0::SimdShaSigma2                0      0.00%     46.46% # Class of committed instruction
system.cpu.op_class_0::SimdShaSigma3                0      0.00%     46.46% # Class of committed instruction
system.cpu.op_class_0::SimdPredAlu                  0      0.00%     46.46% # Class of committed instruction
system.cpu.op_class_0::MemRead               42690537     42.61%     89.06% # Class of committed instruction
system.cpu.op_class_0::MemWrite              10958215     10.94%    100.00% # Class of committed instruction
system.cpu.op_class_0::FloatMemRead                 0      0.00%    100.00% # Class of committed instruction
system.cpu.op_class_0::FloatMemWrite                0      0.00%    100.00% # Class of committed instruction
system.cpu.op_class_0::IprAccess                    0      0.00%    100.00% # Class of committed instruction
system.cpu.op_class_0::InstPrefetch                 0      0.00%    100.00% # Class of committed instruction
system.cpu.op_class_0::total                100196356                       # Class of committed instruction
system.cpu.tickCycles                       132293366                       # Number of cycles that the object actually ticked
system.cpu.workload.numSyscalls                    85                       # Number of system calls
system.membus.snoop_filter.hit_multi_requests            0                       # Number of requests hitting in the snoop filter with multiple (>1) holders of the requested data.
system.membus.snoop_filter.hit_multi_snoops            0                       # Number of snoops hitting in the snoop filter with multiple (>1) holders of the requested data.
system.membus.snoop_filter.hit_single_requests        75720                       # Number of requests hitting in the snoop filter with a single holder of the requested data.
system.membus.snoop_filter.hit_single_snoops            0                       # Number of snoops hitting in the snoop filter with a single holder of the requested data.
system.membus.snoop_filter.tot_requests        184497                       # Total number of requests made to the snoop filter.
system.membus.snoop_filter.tot_snoops               0                       # Total number of snoops made to the snoop filter.
system.tol2bus.snoop_filter.hit_multi_requests           75                       # Number of requests hitting in the snoop filter with multiple (>1) holders of the requested data.
system.tol2bus.snoop_filter.hit_multi_snoops            0                       # Number of snoops hitting in the snoop filter with multiple (>1) holders of the requested data.
system.tol2bus.snoop_filter.hit_single_requests       461102                       # Number of requests hitting in the snoop filter with a single holder of the requested data.
system.tol2bus.snoop_filter.hit_single_snoops          336                       # Number of snoops hitting in the snoop filter with a single holder of the requested data.
system.tol2bus.snoop_filter.tot_requests       923595                       # Total number of requests made to the snoop filter.
system.tol2bus.snoop_filter.tot_snoops            336                       # Total number of snoops made to the snoop filter.
system.clk_domain.clock                          1000                       # Clock period in ticks
system.cpu.branchPred.lookups                 4486338                       # Number of BP lookups
system.cpu.branchPred.condPredicted           3736036                       # Number of conditional branches predicted
system.cpu.branchPred.condIncorrect             81010                       # Number of conditional branches incorrect
system.cpu.branchPred.BTBLookups              2104228                       # Number of BTB lookups
system.cpu.branchPred.BTBHits                 2102129                       # Number of BTB hits
system.cpu.branchPred.BTBHitPct             99.900248                       # BTB Hit Percentage
system.cpu.branchPred.RASUsed                   65249                       # Number of times the RAS was used to get a target.
system.cpu.branchPred.RASIncorrect                 15                       # Number of incorrect RAS predictions.
system.cpu.branchPred.indirectLookups             694                       # Number of indirect predictor lookups.
system.cpu.branchPred.indirectHits                287                       # Number of indirect target hits.
system.cpu.branchPred.indirectMisses              407                       # Number of indirect misses.
system.cpu.branchPred.indirectMispredicted          170                       # Number of mispredicted indirect branches.
system.cpu.dcache.demand_hits::.cpu.data     51557746                       # number of demand (read+write) hits
system.cpu.dcache.demand_hits::total         51557746                       # number of demand (read+write) hits
system.cpu.dcache.overall_hits::.cpu.data     51558350                       # number of overall hits
system.cpu.dcache.overall_hits::total        51558350                       # number of overall hits
system.cpu.dcache.demand_misses::.cpu.data       493382                       # number of demand (read+write) misses
system.cpu.dcache.demand_misses::total         493382                       # number of demand (read+write) misses
system.cpu.dcache.overall_misses::.cpu.data       501197                       # number of overall misses
system.cpu.dcache.overall_misses::total        501197                       # number of overall misses
system.cpu.dcache.demand_miss_latency::.cpu.data  16714806000                       # number of demand (read+write) miss cycles
system.cpu.dcache.demand_miss_latency::total  16714806000                       # number of demand (read+write) miss cycles
system.cpu.dcache.overall_miss_latency::.cpu.data  16714806000                       # number of overall miss cycles
system.cpu.dcache.overall_miss_latency::total  16714806000                       # number of overall miss cycles
system.cpu.dcache.demand_accesses::.cpu.data     52051128                       # number of demand (read+write) accesses
system.cpu.dcache.demand_accesses::total     52051128                       # number of demand (read+write) accesses
system.cpu.dcache.overall_accesses::.cpu.data     52059547                       # number of overall (read+write) accesses
system.cpu.dcache.overall_accesses::total     52059547                       # number of overall (read+write) accesses
system.cpu.dcache.demand_miss_rate::.cpu.data     0.009479                       # miss rate for demand accesses
system.cpu.dcache.demand_miss_rate::total     0.009479                       # miss rate for demand accesses
system.cpu.dcache.overall_miss_rate::.cpu.data     0.009627                       # miss rate for overall accesses
system.cpu.dcache.overall_miss_rate::total     0.009627                       # miss rate for overall accesses
system.cpu.dcache.demand_avg_miss_latency::.cpu.data 33878.021492                       # average overall miss latency
system.cpu.dcache.demand_avg_miss_latency::total 33878.021492                       # average overall miss latency
system.cpu.dcache.overall_avg_miss_latency::.cpu.data 33349.772644                       # average overall miss latency
system.cpu.dcache.overall_avg_miss_latency::total 33349.772644                       # average overall miss latency
system.cpu.dcache.blocked_cycles::no_mshrs            0                       # number of cycles access was blocked
system.cpu.dcache.blocked_cycles::no_targets            0                       # number of cycles access was blocked
system.cpu.dcache.blocked::no_mshrs                 0                       # number of cycles access was blocked
system.cpu.dcache.blocked::no_targets               0                       # number of cycles access was blocked
system.cpu.dcache.avg_blocked_cycles::no_mshrs          nan                       # average number of cycles each access was blocked
system.cpu.dcache.avg_blocked_cycles::no_targets          nan                       # average number of cycles each access was blocked
system.cpu.dcache.writebacks::.writebacks       429239                       # number of writebacks
system.cpu.dcache.writebacks::total            429239                       # number of writebacks
system.cpu.dcache.demand_mshr_hits::.cpu.data        35278                       # number of demand (read+write) MSHR hits
system.cpu.dcache.demand_mshr_hits::total        35278                       # number of demand (read+write) MSHR hits
system.cpu.dcache.overall_mshr_hits::.cpu.data        35278                       # number of overall MSHR hits
system.cpu.dcache.overall_mshr_hits::total        35278                       # number of overall MSHR hits
system.cpu.dcache.demand_mshr_misses::.cpu.data       458104                       # number of demand (read+write) MSHR misses
system.cpu.dcache.demand_mshr_misses::total       458104                       # number of demand (read+write) MSHR misses
system.cpu.dcache.overall_mshr_misses::.cpu.data       462056                       # number of overall MSHR misses
system.cpu.dcache.overall_mshr_misses::total       462056                       # number of overall MSHR misses
system.cpu.dcache.demand_mshr_miss_latency::.cpu.data  13781832000                       # number of demand (read+write) MSHR miss cycles
system.cpu.dcache.demand_mshr_miss_latency::total  13781832000                       # number of demand (read+write) MSHR miss cycles
system.cpu.dcache.overall_mshr_miss_latency::.cpu.data  14123154500                       # number of overall MSHR miss cycles
system.cpu.dcache.overall_mshr_miss_latency::total  14123154500                       # number of overall MSHR miss cycles
system.cpu.dcache.demand_mshr_miss_rate::.cpu.data     0.008801                       # mshr miss rate for demand accesses
system.cpu.dcache.demand_mshr_miss_rate::total     0.008801                       # mshr miss rate for demand accesses
system.cpu.dcache.overall_mshr_miss_rate::.cpu.data     0.008876                       # mshr miss rate for overall accesses
system.cpu.dcache.overall_mshr_miss_rate::total     0.008876                       # mshr miss rate for overall accesses
system.cpu.dcache.demand_avg_mshr_miss_latency::.cpu.data 30084.504829                       # average overall mshr miss latency
system.cpu.dcache.demand_avg_mshr_miss_latency::total 30084.504829                       # average overall mshr miss latency
system.cpu.dcache.overall_avg_mshr_miss_latency::.cpu.data 30565.893528                       # average overall mshr miss latency
system.cpu.dcache.overall_avg_mshr_miss_latency::total 30565.893528                       # average overall mshr miss latency
system.cpu.dcache.replacements                 461032                       # number of replacements
system.cpu.dcache.ReadReq_hits::.cpu.data     40859212                       # number of ReadReq hits
system.cpu.dcache.ReadReq_hits::total        40859212                       # number of ReadReq hits
system.cpu.dcache.ReadReq_misses::.cpu.data       242842                       # number of ReadReq misses
system.cpu.dcache.ReadReq_misses::total        242842                       # number of ReadReq misses
system.cpu.dcache.ReadReq_miss_latency::.cpu.data   5178235500                       # number of ReadReq miss cycles
system.cpu.dcache.ReadReq_miss_latency::total   5178235500                       # number of ReadReq miss cycles
system.cpu.dcache.ReadReq_accesses::.cpu.data     41102054                       # number of ReadReq accesses(hits+misses)
system.cpu.dcache.ReadReq_accesses::total     41102054                       # number of ReadReq accesses(hits+misses)
system.cpu.dcache.ReadReq_miss_rate::.cpu.data     0.005908                       # miss rate for ReadReq accesses
system.cpu.dcache.ReadReq_miss_rate::total     0.005908                       # miss rate for ReadReq accesses
system.cpu.dcache.ReadReq_avg_miss_latency::.cpu.data 21323.475758                       # average ReadReq miss latency
system.cpu.dcache.ReadReq_avg_miss_latency::total 21323.475758                       # average ReadReq miss latency
system.cpu.dcache.ReadReq_mshr_hits::.cpu.data         2602                       # number of ReadReq MSHR hits
system.cpu.dcache.ReadReq_mshr_hits::total         2602                       # number of ReadReq MSHR hits
system.cpu.dcache.ReadReq_mshr_misses::.cpu.data       240240                       # number of ReadReq MSHR misses
system.cpu.dcache.ReadReq_mshr_misses::total       240240                       # number of ReadReq MSHR misses
system.cpu.dcache.ReadReq_mshr_miss_latency::.cpu.data   4778326500                       # number of ReadReq MSHR miss cycles
system.cpu.dcache.ReadReq_mshr_miss_latency::total   4778326500                       # number of ReadReq MSHR miss cycles
system.cpu.dcache.ReadReq_mshr_miss_rate::.cpu.data     0.005845                       # mshr miss rate for ReadReq accesses
system.cpu.dcache.ReadReq_mshr_miss_rate::total     0.005845                       # mshr miss rate for ReadReq accesses
system.cpu.dcache.ReadReq_avg_mshr_miss_latency::.cpu.data 19889.803946                       # average ReadReq mshr miss latency
system.cpu.dcache.ReadReq_avg_mshr_miss_latency::total 19889.803946                       # average ReadReq mshr miss latency
system.cpu.dcache.WriteReq_hits::.cpu.data     10698534                       # number of WriteReq hits
system.cpu.dcache.WriteReq_hits::total       10698534                       # number of WriteReq hits
system.cpu.dcache.WriteReq_misses::.cpu.data       250540                       # number of WriteReq misses
system.cpu.dcache.WriteReq_misses::total       250540                       # number of WriteReq misses
system.cpu.dcache.WriteReq_miss_latency::.cpu.data  11536570500                       # number of WriteReq miss cycles
system.cpu.dcache.WriteReq_miss_latency::total  11536570500                       # number of WriteReq miss cycles
system.cpu.dcache.WriteReq_accesses::.cpu.data     10949074                       # number of WriteReq accesses(hits+misses)
system.cpu.dcache.WriteReq_accesses::total     10949074                       # number of WriteReq accesses(hits+misses)
system.cpu.dcache.WriteReq_miss_rate::.cpu.data     0.022882                       # miss rate for WriteReq accesses
system.cpu.dcache.WriteReq_miss_rate::total     0.022882                       # miss rate for WriteReq accesses
system.cpu.dcache.WriteReq_avg_miss_latency::.cpu.data 46046.820867                       # average WriteReq miss latency
system.cpu.dcache.WriteReq_avg_miss_latency::total 46046.820867                       # average WriteReq miss latency
system.cpu.dcache.WriteReq_mshr_hits::.cpu.data        32676                       # number of WriteReq MSHR hits
system.cpu.dcache.WriteReq_mshr_hits::total        32676                       # number of WriteReq MSHR hits
system.cpu.dcache.WriteReq_mshr_misses::.cpu.data       217864                       # number of WriteReq MSHR misses
system.cpu.dcache.WriteReq_mshr_misses::total       217864                       # number of WriteReq MSHR misses
system.cpu.dcache.WriteReq_mshr_miss_latency::.cpu.data   9003505500                       # number of WriteReq MSHR miss cycles
system.cpu.dcache.WriteReq_mshr_miss_latency::total   9003505500                       # number of WriteReq MSHR miss cycles
system.cpu.dcache.WriteReq_mshr_miss_rate::.cpu.data     0.019898                       # mshr miss rate for WriteReq accesses
system.cpu.dcache.WriteReq_mshr_miss_rate::total     0.019898                       # mshr miss rate for WriteReq accesses
system.cpu.dcache.WriteReq_avg_mshr_miss_latency::.cpu.data 41326.265468                       # average WriteReq mshr miss latency
system.cpu.dcache.WriteReq_avg_mshr_miss_latency::total 41326.265468                       # average WriteReq mshr miss latency
system.cpu.dcache.SoftPFReq_hits::.cpu.data          604                       # number of SoftPFReq hits
system.cpu.dcache.SoftPFReq_hits::total           604                       # number of SoftPFReq hits
system.cpu.dcache.SoftPFReq_misses::.cpu.data         7815                       # number of SoftPFReq misses
system.cpu.dcache.SoftPFReq_misses::total         7815                       # number of SoftPFReq misses
system.cpu.dcache.SoftPFReq_accesses::.cpu.data         8419                       # number of SoftPFReq accesses(hits+misses)
system.cpu.dcache.SoftPFReq_accesses::total         8419                       # number of SoftPFReq accesses(hits+misses)
system.cpu.dcache.SoftPFReq_miss_rate::.cpu.data     0.928258                       # miss rate for SoftPFReq accesses
system.cpu.dcache.SoftPFReq_miss_rate::total     0.928258                       # miss rate for SoftPFReq accesses
system.cpu.dcache.SoftPFReq_mshr_misses::.cpu.data         3952                       # number of SoftPFReq MSHR misses
system.cpu.dcache.SoftPFReq_mshr_misses::total         3952                       # number of SoftPFReq MSHR misses
system.cpu.dcache.SoftPFReq_mshr_miss_latency::.cpu.data    341322500                       # number of SoftPFReq MSHR miss cycles
system.cpu.dcache.SoftPFReq_mshr_miss_latency::total    341322500                       # number of SoftPFReq MSHR miss cycles
system.cpu.dcache.SoftPFReq_mshr_miss_rate::.cpu.data     0.469414                       # mshr miss rate for SoftPFReq accesses
system.cpu.dcache.SoftPFReq_mshr_miss_rate::total     0.469414                       # mshr miss rate for SoftPFReq accesses
system.cpu.dcache.SoftPFReq_avg_mshr_miss_latency::.cpu.data 86367.029352                       # average SoftPFReq mshr miss latency
system.cpu.dcache.SoftPFReq_avg_mshr_miss_latency::total 86367.029352                       # average SoftPFReq mshr miss latency
system.cpu.dcache.LoadLockedReq_hits::.cpu.data           38                       # number of LoadLockedReq hits
system.cpu.dcache.LoadLockedReq_hits::total           38                       # number of LoadLockedReq hits
system.cpu.dcache.LoadLockedReq_accesses::.cpu.data           38                       # number of LoadLockedReq accesses(hits+misses)
system.cpu.dcache.LoadLockedReq_accesses::total           38                       # number of LoadLockedReq accesses(hits+misses)
system.cpu.dcache.StoreCondReq_hits::.cpu.data           38                       # number of StoreCondReq hits
system.cpu.dcache.StoreCondReq_hits::total           38                       # number of StoreCondReq hits
system.cpu.dcache.StoreCondReq_accesses::.cpu.data           38                       # number of StoreCondReq accesses(hits+misses)
system.cpu.dcache.StoreCondReq_accesses::total           38                       # number of StoreCondReq accesses(hits+misses)
system.cpu.dcache.power_state.pwrStateResidencyTicks::UNDEFINED  80082918500                       # Cumulative time (in ticks) in various power states
system.cpu.dcache.tags.tagsinuse          1005.541312                       # Cycle average of tags in use
system.cpu.dcache.tags.total_refs            52020482                       # Total number of references to valid blocks.
system.cpu.dcache.tags.sampled_refs            462056                       # Sample count of references to valid blocks.
system.cpu.dcache.tags.avg_refs            112.584799                       # Average number of references to valid blocks.
system.cpu.dcache.tags.warmup_cycle            186500                       # Cycle when the warmup percentage was hit.
system.cpu.dcache.tags.occ_blocks::.cpu.data  1005.541312                       # Average occupied blocks per requestor
system.cpu.dcache.tags.occ_percent::.cpu.data     0.981974                       # Average percentage of cache occupancy
system.cpu.dcache.tags.occ_percent::total     0.981974                       # Average percentage of cache occupancy
system.cpu.dcache.tags.occ_task_id_blocks::1024         1024                       # Occupied blocks per task id
system.cpu.dcache.tags.age_task_id_blocks_1024::0          148                       # Occupied blocks per task id
system.cpu.dcache.tags.age_task_id_blocks_1024::1          559                       # Occupied blocks per task id
system.cpu.dcache.tags.age_task_id_blocks_1024::2          316                       # Occupied blocks per task id
system.cpu.dcache.tags.age_task_id_blocks_1024::4            1                       # Occupied blocks per task id
system.cpu.dcache.tags.occ_task_id_percent::1024            1                       # Percentage of cache occupancy per task id
system.cpu.dcache.tags.tag_accesses         208700548                       # Number of tag accesses
system.cpu.dcache.tags.data_accesses        208700548                       # Number of data accesses
system.cpu.dcache.tags.power_state.pwrStateResidencyTicks::UNDEFINED  80082918500                       # Cumulative time (in ticks) in various power states
system.cpu.dtb.instHits                             0                       # ITB inst hits
system.cpu.dtb.instMisses                           0                       # ITB inst misses
system.cpu.dtb.readHits                             0                       # DTB read hits
system.cpu.dtb.readMisses                           0                       # DTB read misses
system.cpu.dtb.writeHits                            0                       # DTB write hits
system.cpu.dtb.writeMisses                          0                       # DTB write misses
system.cpu.dtb.inserts                              0                       # Number of times an entry is inserted into the TLB
system.cpu.dtb.flushTlb                             0                       # Number of times complete TLB was flushed
system.cpu.dtb.flushTlbMva                          0                       # Number of times TLB was flushed by MVA
system.cpu.dtb.flushTlbMvaAsid                      0                       # Number of times TLB was flushed by MVA & ASID
system.cpu.dtb.flushTlbAsid                         0                       # Number of times TLB was flushed by ASID
system.cpu.dtb.flushedEntries                       0                       # Number of entries that have been flushed from TLB
system.cpu.dtb.alignFaults                          0                       # Number of TLB faults due to alignment restrictions
system.cpu.dtb.prefetchFaults                       0                       # Number of TLB faults due to prefetch
system.cpu.dtb.domainFaults                         0                       # Number of TLB faults due to domain restrictions
system.cpu.dtb.permsFaults                          0                       # Number of TLB faults due to permissions restrictions
system.cpu.dtb.readAccesses                         0                       # DTB read accesses
system.cpu.dtb.writeAccesses                        0                       # DTB write accesses
system.cpu.dtb.instAccesses                         0                       # ITB inst accesses
system.cpu.dtb.hits                                 0                       # Total TLB (inst and data) hits
system.cpu.dtb.misses                               0                       # Total TLB (inst and data) misses
system.cpu.dtb.accesses                             0                       # Total TLB (inst and data) accesses
system.cpu.dtb.stage2_mmu.stage2_tlb.instHits            0                       # ITB inst hits
system.cpu.dtb.stage2_mmu.stage2_tlb.instMisses            0                       # ITB inst misses
system.cpu.dtb.stage2_mmu.stage2_tlb.readHits            0                       # DTB read hits
system.cpu.dtb.stage2_mmu.stage2_tlb.readMisses            0                       # DTB read misses
system.cpu.dtb.stage2_mmu.stage2_tlb.writeHits            0                       # DTB write hits
system.cpu.dtb.stage2_mmu.stage2_tlb.writeMisses            0                       # DTB write misses
system.cpu.dtb.stage2_mmu.stage2_tlb.inserts            0                       # Number of times an entry is inserted into the TLB
system.cpu.dtb.stage2_mmu.stage2_tlb.flushTlb            0                       # Number of times complete TLB was flushed
system.cpu.dtb.stage2_mmu.stage2_tlb.flushTlbMva            0                       # Number of times TLB was flushed by MVA
system.cpu.dtb.stage2_mmu.stage2_tlb.flushTlbMvaAsid            0                       # Number of times TLB was flushed by MVA & ASID
system.cpu.dtb.stage2_mmu.stage2_tlb.flushTlbAsid            0                       # Number of times TLB was flushed by ASID
system.cpu.dtb.stage2_mmu.stage2_tlb.flushedEntries            0                       # Number of entries that have been flushed from TLB
system.cpu.dtb.stage2_mmu.stage2_tlb.alignFaults            0                       # Number of TLB faults due to alignment restrictions
system.cpu.dtb.stage2_mmu.stage2_tlb.prefetchFaults            0                       # Number of TLB faults due to prefetch
system.cpu.dtb.stage2_mmu.stage2_tlb.domainFaults            0                       # Number of TLB faults due to domain restrictions
system.cpu.dtb.stage2_mmu.stage2_tlb.permsFaults            0                       # Number of TLB faults due to permissions restrictions
system.cpu.dtb.stage2_mmu.stage2_tlb.readAccesses            0                       # DTB read accesses
system.cpu.dtb.stage2_mmu.stage2_tlb.writeAccesses            0                       # DTB write accesses
system.cpu.dtb.stage2_mmu.stage2_tlb.instAccesses            0                       # ITB inst accesses
system.cpu.dtb.stage2_mmu.stage2_tlb.hits            0                       # Total TLB (inst and data) hits
system.cpu.dtb.stage2_mmu.stage2_tlb.misses            0                       # Total TLB (inst and data) misses
system.cpu.dtb.stage2_mmu.stage2_tlb.accesses            0                       # Total TLB (inst and data) accesses
system.cpu.dtb.stage2_mmu.stage2_tlb.walker.walks            0                       # Table walker walks requested
system.cpu.dtb.stage2_mmu.stage2_tlb.walker.requestOrigin_Requested::Data            0                       # Table walker requests started/completed, data/inst
system.cpu.dtb.stage2_mmu.stage2_tlb.walker.requestOrigin_Requested::Inst            0                       # Table walker requests started/completed, data/inst
system.cpu.dtb.stage2_mmu.stage2_tlb.walker.requestOrigin_Requested::total            0                       # Table walker requests started/completed, data/inst
system.cpu.dtb.stage2_mmu.stage2_tlb.walker.requestOrigin_Completed::Data            0                       # Table walker requests started/completed, data/inst
system.cpu.dtb.stage2_mmu.stage2_tlb.walker.requestOrigin_Completed::Inst            0                       # Table walker requests started/completed, data/inst
system.cpu.dtb.stage2_mmu.stage2_tlb.walker.requestOrigin_Completed::total            0                       # Table walker requests started/completed, data/inst
system.cpu.dtb.stage2_mmu.stage2_tlb.walker.requestOrigin::total            0                       # Table walker requests started/completed, data/inst
system.cpu.dtb.stage2_mmu.stage2_tlb.walker.power_state.pwrStateResidencyTicks::UNDEFINED  80082918500                       # Cumulative time (in ticks) in various power states
system.cpu.dtb.walker.walks                         0                       # Table walker walks requested
system.cpu.dtb.walker.requestOrigin_Requested::Data            0                       # Table walker requests started/completed, data/inst
system.cpu.dtb.walker.requestOrigin_Requested::Inst            0                       # Table walker requests started/completed, data/inst
system.cpu.dtb.walker.requestOrigin_Requested::total            0                       # Table walker requests started/completed, data/inst
system.cpu.dtb.walker.requestOrigin_Completed::Data            0                       # Table walker requests started/completed, data/inst
system.cpu.dtb.walker.requestOrigin_Completed::Inst            0                       # Table walker requests started/completed, data/inst
system.cpu.dtb.walker.requestOrigin_Completed::total            0                       # Table walker requests started/completed, data/inst
system.cpu.dtb.walker.requestOrigin::total            0                       # Table walker requests started/completed, data/inst
system.cpu.dtb.walker.power_state.pwrStateResidencyTicks::UNDEFINED  80082918500                       # Cumulative time (in ticks) in various power states
system.cpu.fetch2.intInstructions            42688192                       # Number of integer instructions successfully decoded
system.cpu.fetch2.fpInstructions                    0                       # Number of floating point instructions successfully decoded
system.cpu.fetch2.vecInstructions                   0                       # Number of SIMD instructions successfully decoded
system.cpu.fetch2.loadInstructions           43477136                       # Number of memory load instructions successfully decoded
system.cpu.fetch2.storeInstructions          11025991                       # Number of memory store instructions successfully decoded
system.cpu.fetch2.amoInstructions                   0                       # Number of memory atomic instructions successfully decoded
system.cpu.icache.demand_hits::.cpu.inst      8529939                       # number of demand (read+write) hits
system.cpu.icache.demand_hits::total          8529939                       # number of demand (read+write) hits
system.cpu.icache.overall_hits::.cpu.inst      8529939                       # number of overall hits
system.cpu.icache.overall_hits::total         8529939                       # number of overall hits
system.cpu.icache.demand_misses::.cpu.inst          439                       # number of demand (read+write) misses
system.cpu.icache.demand_misses::total            439                       # number of demand (read+write) misses
system.cpu.icache.overall_misses::.cpu.inst          439                       # number of overall misses
system.cpu.icache.overall_misses::total           439                       # number of overall misses
system.cpu.icache.demand_miss_latency::.cpu.inst     36624500                       # number of demand (read+write) miss cycles
system.cpu.icache.demand_miss_latency::total     36624500                       # number of demand (read+write) miss cycles
system.cpu.icache.overall_miss_latency::.cpu.inst     36624500                       # number of overall miss cycles
system.cpu.icache.overall_miss_latency::total     36624500                       # number of overall miss cycles
system.cpu.icache.demand_accesses::.cpu.inst      8530378                       # number of demand (read+write) accesses
system.cpu.icache.demand_accesses::total      8530378                       # number of demand (read+write) accesses
system.cpu.icache.overall_accesses::.cpu.inst      8530378                       # number of overall (read+write) accesses
system.cpu.icache.overall_accesses::total      8530378                       # number of overall (read+write) accesses
system.cpu.icache.demand_miss_rate::.cpu.inst     0.000051                       # miss rate for demand accesses
system.cpu.icache.demand_miss_rate::total     0.000051                       # miss rate for demand accesses
system.cpu.icache.overall_miss_rate::.cpu.inst     0.000051                       # miss rate for overall accesses
system.cpu.icache.overall_miss_rate::total     0.000051                       # miss rate for overall accesses
system.cpu.icache.demand_avg_miss_latency::.cpu.inst 83427.107062                       # average overall miss latency
system.cpu.icache.demand_avg_miss_latency::total 83427.107062                       # average overall miss latency
system.cpu.icache.overall_avg_miss_latency::.cpu.inst 83427.107062                       # average overall miss latency
system.cpu.icache.overall_avg_miss_latency::total 83427.107062                       # average overall miss latency
system.cpu.icache.blocked_cycles::no_mshrs            0                       # number of cycles access was blocked
system.cpu.icache.blocked_cycles::no_targets            0                       # number of cycles access was blocked
system.cpu.icache.blocked::no_mshrs                 0                       # number of cycles access was blocked
system.cpu.icache.blocked::no_targets               0                       # number of cycles access was blocked
system.cpu.icache.avg_blocked_cycles::no_mshrs          nan                       # average number of cycles each access was blocked
system.cpu.icache.avg_blocked_cycles::no_targets          nan                       # average number of cycles each access was blocked
system.cpu.icache.writebacks::.writebacks           68                       # number of writebacks
system.cpu.icache.writebacks::total                68                       # number of writebacks
system.cpu.icache.demand_mshr_misses::.cpu.inst          439                       # number of demand (read+write) MSHR misses
system.cpu.icache.demand_mshr_misses::total          439                       # number of demand (read+write) MSHR misses
system.cpu.icache.overall_mshr_misses::.cpu.inst          439                       # number of overall MSHR misses
system.cpu.icache.overall_mshr_misses::total          439                       # number of overall MSHR misses
system.cpu.icache.demand_mshr_miss_latency::.cpu.inst     36185500                       # number of demand (read+write) MSHR miss cycles
system.cpu.icache.demand_mshr_miss_latency::total     36185500                       # number of demand (read+write) MSHR miss cycles
system.cpu.icache.overall_mshr_miss_latency::.cpu.inst     36185500                       # number of overall MSHR miss cycles
system.cpu.icache.overall_mshr_miss_latency::total     36185500                       # number of overall MSHR miss cycles
system.cpu.icache.demand_mshr_miss_rate::.cpu.inst     0.000051                       # mshr miss rate for demand accesses
system.cpu.icache.demand_mshr_miss_rate::total     0.000051                       # mshr miss rate for demand accesses
system.cpu.icache.overall_mshr_miss_rate::.cpu.inst     0.000051                       # mshr miss rate for overall accesses
system.cpu.icache.overall_mshr_miss_rate::total     0.000051                       # mshr miss rate for overall accesses
system.cpu.icache.demand_avg_mshr_miss_latency::.cpu.inst 82427.107062                       # average overall mshr miss latency
system.cpu.icache.demand_avg_mshr_miss_latency::total 82427.107062                       # average overall mshr miss latency
system.cpu.icache.overall_avg_mshr_miss_latency::.cpu.inst 82427.107062                       # average overall mshr miss latency
system.cpu.icache.overall_avg_mshr_miss_latency::total 82427.107062                       # average overall mshr miss latency
system.cpu.icache.replacements                     68                       # number of replacements
system.cpu.icache.ReadReq_hits::.cpu.inst      8529939                       # number of ReadReq hits
system.cpu.icache.ReadReq_hits::total         8529939                       # number of ReadReq hits
system.cpu.icache.ReadReq_misses::.cpu.inst          439                       # number of ReadReq misses
system.cpu.icache.ReadReq_misses::total           439                       # number of ReadReq misses
system.cpu.icache.ReadReq_miss_latency::.cpu.inst     36624500                       # number of ReadReq miss cycles
system.cpu.icache.ReadReq_miss_latency::total     36624500                       # number of ReadReq miss cycles
system.cpu.icache.ReadReq_accesses::.cpu.inst      8530378                       # number of ReadReq accesses(hits+misses)
system.cpu.icache.ReadReq_accesses::total      8530378                       # number of ReadReq accesses(hits+misses)
system.cpu.icache.ReadReq_miss_rate::.cpu.inst     0.000051                       # miss rate for ReadReq accesses
system.cpu.icache.ReadReq_miss_rate::total     0.000051                       # miss rate for ReadReq accesses
system.cpu.icache.ReadReq_avg_miss_latency::.cpu.inst 83427.107062                       # average ReadReq miss latency
system.cpu.icache.ReadReq_avg_miss_latency::total 83427.107062                       # average ReadReq miss latency
system.cpu.icache.ReadReq_mshr_misses::.cpu.inst          439                       # number of ReadReq MSHR misses
system.cpu.icache.ReadReq_mshr_misses::total          439                       # number of ReadReq MSHR misses
system.cpu.icache.ReadReq_mshr_miss_latency::.cpu.inst     36185500                       # number of ReadReq MSHR miss cycles
system.cpu.icache.ReadReq_mshr_miss_latency::total     36185500                       # number of ReadReq MSHR miss cycles
system.cpu.icache.ReadReq_mshr_miss_rate::.cpu.inst     0.000051                       # mshr miss rate for ReadReq accesses
system.cpu.icache.ReadReq_mshr_miss_rate::total     0.000051                       # mshr miss rate for ReadReq accesses
system.cpu.icache.ReadReq_avg_mshr_miss_latency::.cpu.inst 82427.107062                       # average ReadReq mshr miss latency
system.cpu.icache.ReadReq_avg_mshr_miss_latency::total 82427.107062                       # average ReadReq mshr miss latency
system.cpu.icache.power_state.pwrStateResidencyTicks::UNDEFINED  80082918500                       # Cumulative time (in ticks) in various power states
system.cpu.icache.tags.tagsinuse           311.351415                       # Cycle average of tags in use
system.cpu.icache.tags.total_refs             8530378                       # Total number of references to valid blocks.
system.cpu.icache.tags.sampled_refs               439                       # Sample count of references to valid blocks.
system.cpu.icache.tags.avg_refs          19431.384966                       # Average number of references to valid blocks.
system.cpu.icache.tags.warmup_cycle             92500                       # Cycle when the warmup percentage was hit.
system.cpu.icache.tags.occ_blocks::.cpu.inst   311.351415                       # Average occupied blocks per requestor
system.cpu.icache.tags.occ_percent::.cpu.inst     0.608108                       # Average percentage of cache occupancy
system.cpu.icache.tags.occ_percent::total     0.608108                       # Average percentage of cache occupancy
system.cpu.icache.tags.occ_task_id_blocks::1024          371                       # Occupied blocks per task id
system.cpu.icache.tags.age_task_id_blocks_1024::3           52                       # Occupied blocks per task id
system.cpu.icache.tags.age_task_id_blocks_1024::4          319                       # Occupied blocks per task id
system.cpu.icache.tags.occ_task_id_percent::1024     0.724609                       # Percentage of cache occupancy per task id
system.cpu.icache.tags.tag_accesses          34121951                       # Number of tag accesses
system.cpu.icache.tags.data_accesses         34121951                       # Number of data accesses
system.cpu.icache.tags.power_state.pwrStateResidencyTicks::UNDEFINED  80082918500                       # Cumulative time (in ticks) in various power states
system.cpu.itb.instHits                             0                       # ITB inst hits
system.cpu.itb.instMisses                           0                       # ITB inst misses
system.cpu.itb.readHits                             0                       # DTB read hits
system.cpu.itb.readMisses                           0                       # DTB read misses
system.cpu.itb.writeHits                            0                       # DTB write hits
system.cpu.itb.writeMisses                          0                       # DTB write misses
system.cpu.itb.inserts                              0                       # Number of times an entry is inserted into the TLB
system.cpu.itb.flushTlb                             0                       # Number of times complete TLB was flushed
system.cpu.itb.flushTlbMva                          0                       # Number of times TLB was flushed by MVA
system.cpu.itb.flushTlbMvaAsid                      0                       # Number of times TLB was flushed by MVA & ASID
system.cpu.itb.flushTlbAsid                         0                       # Number of times TLB was flushed by ASID
system.cpu.itb.flushedEntries                       0                       # Number of entries that have been flushed from TLB
system.cpu.itb.alignFaults                          0                       # Number of TLB faults due to alignment restrictions
system.cpu.itb.prefetchFaults                       0                       # Number of TLB faults due to prefetch
system.cpu.itb.domainFaults                         0                       # Number of TLB faults due to domain restrictions
system.cpu.itb.permsFaults                          0                       # Number of TLB faults due to permissions restrictions
system.cpu.itb.readAccesses                         0                       # DTB read accesses
system.cpu.itb.writeAccesses                        0                       # DTB write accesses
system.cpu.itb.instAccesses                         0                       # ITB inst accesses
system.cpu.itb.hits                                 0                       # Total TLB (inst and data) hits
system.cpu.itb.misses                               0                       # Total TLB (inst and data) misses
system.cpu.itb.accesses                             0                       # Total TLB (inst and data) accesses
system.cpu.itb.stage2_mmu.stage2_tlb.instHits            0                       # ITB inst hits
system.cpu.itb.stage2_mmu.stage2_tlb.instMisses            0                       # ITB inst misses
system.cpu.itb.stage2_mmu.stage2_tlb.readHits            0                       # DTB read hits
system.cpu.itb.stage2_mmu.stage2_tlb.readMisses            0                       # DTB read misses
system.cpu.itb.stage2_mmu.stage2_tlb.writeHits            0                       # DTB write hits
system.cpu.itb.stage2_mmu.stage2_tlb.writeMisses            0                       # DTB write misses
system.cpu.itb.stage2_mmu.stage2_tlb.inserts            0                       # Number of times an entry is inserted into the TLB
system.cpu.itb.stage2_mmu.stage2_tlb.flushTlb            0                       # Number of times complete TLB was flushed
system.cpu.itb.stage2_mmu.stage2_tlb.flushTlbMva            0                       # Number of times TLB was flushed by MVA
system.cpu.itb.stage2_mmu.stage2_tlb.flushTlbMvaAsid            0                       # Number of times TLB was flushed by MVA & ASID
system.cpu.itb.stage2_mmu.stage2_tlb.flushTlbAsid            0                       # Number of times TLB was flushed by ASID
system.cpu.itb.stage2_mmu.stage2_tlb.flushedEntries            0                       # Number of entries that have been flushed from TLB
system.cpu.itb.stage2_mmu.stage2_tlb.alignFaults            0                       # Number of TLB faults due to alignment restrictions
system.cpu.itb.stage2_mmu.stage2_tlb.prefetchFaults            0                       # Number of TLB faults due to prefetch
system.cpu.itb.stage2_mmu.stage2_tlb.domainFaults            0                       # Number of TLB faults due to domain restrictions
system.cpu.itb.stage2_mmu.stage2_tlb.permsFaults            0                       # Number of TLB faults due to permissions restrictions
system.cpu.itb.stage2_mmu.stage2_tlb.readAccesses            0                       # DTB read accesses
system.cpu.itb.stage2_mmu.stage2_tlb.writeAccesses            0                       # DTB write accesses
system.cpu.itb.stage2_mmu.stage2_tlb.instAccesses            0                       # ITB inst accesses
system.cpu.itb.stage2_mmu.stage2_tlb.hits            0                       # Total TLB (inst and data) hits
system.cpu.itb.stage2_mmu.stage2_tlb.misses            0                       # Total TLB (inst and data) misses
system.cpu.itb.stage2_mmu.stage2_tlb.accesses            0                       # Total TLB (inst and data) accesses
system.cpu.itb.stage2_mmu.stage2_tlb.walker.walks            0                       # Table walker walks requested
system.cpu.itb.stage2_mmu.stage2_tlb.walker.requestOrigin_Requested::Data            0                       # Table walker requests started/completed, data/inst
system.cpu.itb.stage2_mmu.stage2_tlb.walker.requestOrigin_Requested::Inst            0                       # Table walker requests started/completed, data/inst
system.cpu.itb.stage2_mmu.stage2_tlb.walker.requestOrigin_Requested::total            0                       # Table walker requests started/completed, data/inst
system.cpu.itb.stage2_mmu.stage2_tlb.walker.requestOrigin_Completed::Data            0                       # Table walker requests started/completed, data/inst
system.cpu.itb.stage2_mmu.stage2_tlb.walker.requestOrigin_Completed::Inst            0                       # Table walker requests started/completed, data/inst
system.cpu.itb.stage2_mmu.stage2_tlb.walker.requestOrigin_Completed::total            0                       # Table walker requests started/completed, data/inst
system.cpu.itb.stage2_mmu.stage2_tlb.walker.requestOrigin::total            0                       # Table walker requests started/completed, data/inst
system.cpu.itb.stage2_mmu.stage2_tlb.walker.power_state.pwrStateResidencyTicks::UNDEFINED  80082918500                       # Cumulative time (in ticks) in various power states
system.cpu.itb.walker.walks                         0                       # Table walker walks requested
system.cpu.itb.walker.requestOrigin_Requested::Data            0                       # Table walker requests started/completed, data/inst
system.cpu.itb.walker.requestOrigin_Requested::Inst            0                       # Table walker requests started/completed, data/inst
system.cpu.itb.walker.requestOrigin_Requested::total            0                       # Table walker requests started/completed, data/inst
system.cpu.itb.walker.requestOrigin_Completed::Data            0                       # Table walker requests started/completed, data/inst
system.cpu.itb.walker.requestOrigin_Completed::Inst            0                       # Table walker requests started/completed, data/inst
system.cpu.itb.walker.requestOrigin_Completed::total            0                       # Table walker requests started/completed, data/inst
system.cpu.itb.walker.requestOrigin::total            0                       # Table walker requests started/completed, data/inst
system.cpu.itb.walker.power_state.pwrStateResidencyTicks::UNDEFINED  80082918500                       # Cumulative time (in ticks) in various power states
system.cpu.power_state.pwrStateResidencyTicks::ON  80082918500                       # Cumulative time (in ticks) in various power states
system.cpu.thread17522.numInsts             100000001                       # Number of Instructions committed
system.cpu.thread17522.numOps               100196356                       # Number of Ops committed
system.cpu.thread17522.numMemRefs                   0                       # Number of Memory References
system.cpu_clk_domain.clock                       500                       # Clock period in ticks
system.cpu_voltage_domain.voltage                   1                       # Voltage in Volts
system.l2.demand_hits::.cpu.inst                   26                       # number of demand (read+write) hits
system.l2.demand_hits::.cpu.data               353683                       # number of demand (read+write) hits
system.l2.demand_hits::total                   353709                       # number of demand (read+write) hits
system.l2.overall_hits::.cpu.inst                  26                       # number of overall hits
system.l2.overall_hits::.cpu.data              353683                       # number of overall hits
system.l2.overall_hits::total                  353709                       # number of overall hits
system.l2.demand_misses::.cpu.inst                413                       # number of demand (read+write) misses
system.l2.demand_misses::.cpu.data             108373                       # number of demand (read+write) misses
system.l2.demand_misses::total                 108786                       # number of demand (read+write) misses
system.l2.overall_misses::.cpu.inst               413                       # number of overall misses
system.l2.overall_misses::.cpu.data            108373                       # number of overall misses
system.l2.overall_misses::total                108786                       # number of overall misses
system.l2.demand_miss_latency::.cpu.inst     35211000                       # number of demand (read+write) miss cycles
system.l2.demand_miss_latency::.cpu.data   9701080000                       # number of demand (read+write) miss cycles
system.l2.demand_miss_latency::total       9736291000                       # number of demand (read+write) miss cycles
system.l2.overall_miss_latency::.cpu.inst     35211000                       # number of overall miss cycles
system.l2.overall_miss_latency::.cpu.data   9701080000                       # number of overall miss cycles
system.l2.overall_miss_latency::total      9736291000                       # number of overall miss cycles
system.l2.demand_accesses::.cpu.inst              439                       # number of demand (read+write) accesses
system.l2.demand_accesses::.cpu.data           462056                       # number of demand (read+write) accesses
system.l2.demand_accesses::total               462495                       # number of demand (read+write) accesses
system.l2.overall_accesses::.cpu.inst             439                       # number of overall (read+write) accesses
system.l2.overall_accesses::.cpu.data          462056                       # number of overall (read+write) accesses
system.l2.overall_accesses::total              462495                       # number of overall (read+write) accesses
system.l2.demand_miss_rate::.cpu.inst        0.940774                       # miss rate for demand accesses
system.l2.demand_miss_rate::.cpu.data        0.234545                       # miss rate for demand accesses
system.l2.demand_miss_rate::total            0.235216                       # miss rate for demand accesses
system.l2.overall_miss_rate::.cpu.inst       0.940774                       # miss rate for overall accesses
system.l2.overall_miss_rate::.cpu.data       0.234545                       # miss rate for overall accesses
system.l2.overall_miss_rate::total           0.235216                       # miss rate for overall accesses
system.l2.demand_avg_miss_latency::.cpu.inst 85256.658596                       # average overall miss latency
system.l2.demand_avg_miss_latency::.cpu.data 89515.654268                       # average overall miss latency
system.l2.demand_avg_miss_latency::total 89499.485228                       # average overall miss latency
system.l2.overall_avg_miss_latency::.cpu.inst 85256.658596                       # average overall miss latency
system.l2.overall_avg_miss_latency::.cpu.data 89515.654268                       # average overall miss latency
system.l2.overall_avg_miss_latency::total 89499.485228                       # average overall miss latency
system.l2.blocked_cycles::no_mshrs                  0                       # number of cycles access was blocked
system.l2.blocked_cycles::no_targets                0                       # number of cycles access was blocked
system.l2.blocked::no_mshrs                         0                       # number of cycles access was blocked
system.l2.blocked::no_targets                       0                       # number of cycles access was blocked
system.l2.avg_blocked_cycles::no_mshrs            nan                       # average number of cycles each access was blocked
system.l2.avg_blocked_cycles::no_targets          nan                       # average number of cycles each access was blocked
system.l2.writebacks::.writebacks               49578                       # number of writebacks
system.l2.writebacks::total                     49578                       # number of writebacks
system.l2.demand_mshr_hits::.cpu.data               3                       # number of demand (read+write) MSHR hits
system.l2.demand_mshr_hits::total                   3                       # number of demand (read+write) MSHR hits
system.l2.overall_mshr_hits::.cpu.data              3                       # number of overall MSHR hits
system.l2.overall_mshr_hits::total                  3                       # number of overall MSHR hits
system.l2.demand_mshr_misses::.cpu.inst           413                       # number of demand (read+write) MSHR misses
system.l2.demand_mshr_misses::.cpu.data        108370                       # number of demand (read+write) MSHR misses
system.l2.demand_mshr_misses::total            108783                       # number of demand (read+write) MSHR misses
system.l2.overall_mshr_misses::.cpu.inst          413                       # number of overall MSHR misses
system.l2.overall_mshr_misses::.cpu.data       108370                       # number of overall MSHR misses
system.l2.overall_mshr_misses::total           108783                       # number of overall MSHR misses
system.l2.demand_mshr_miss_latency::.cpu.inst     31081000                       # number of demand (read+write) MSHR miss cycles
system.l2.demand_mshr_miss_latency::.cpu.data   8617162500                       # number of demand (read+write) MSHR miss cycles
system.l2.demand_mshr_miss_latency::total   8648243500                       # number of demand (read+write) MSHR miss cycles
system.l2.overall_mshr_miss_latency::.cpu.inst     31081000                       # number of overall MSHR miss cycles
system.l2.overall_mshr_miss_latency::.cpu.data   8617162500                       # number of overall MSHR miss cycles
system.l2.overall_mshr_miss_latency::total   8648243500                       # number of overall MSHR miss cycles
system.l2.demand_mshr_miss_rate::.cpu.inst     0.940774                       # mshr miss rate for demand accesses
system.l2.demand_mshr_miss_rate::.cpu.data     0.234539                       # mshr miss rate for demand accesses
system.l2.demand_mshr_miss_rate::total       0.235209                       # mshr miss rate for demand accesses
system.l2.overall_mshr_miss_rate::.cpu.inst     0.940774                       # mshr miss rate for overall accesses
system.l2.overall_mshr_miss_rate::.cpu.data     0.234539                       # mshr miss rate for overall accesses
system.l2.overall_mshr_miss_rate::total      0.235209                       # mshr miss rate for overall accesses
system.l2.demand_avg_mshr_miss_latency::.cpu.inst 75256.658596                       # average overall mshr miss latency
system.l2.demand_avg_mshr_miss_latency::.cpu.data 79516.125311                       # average overall mshr miss latency
system.l2.demand_avg_mshr_miss_latency::total 79499.954037                       # average overall mshr miss latency
system.l2.overall_avg_mshr_miss_latency::.cpu.inst 75256.658596                       # average overall mshr miss latency
system.l2.overall_avg_mshr_miss_latency::.cpu.data 79516.125311                       # average overall mshr miss latency
system.l2.overall_avg_mshr_miss_latency::total 79499.954037                       # average overall mshr miss latency
system.l2.replacements                          76050                       # number of replacements
system.l2.WritebackDirty_hits::.writebacks       429239                       # number of WritebackDirty hits
system.l2.WritebackDirty_hits::total           429239                       # number of WritebackDirty hits
system.l2.WritebackDirty_accesses::.writebacks       429239                       # number of WritebackDirty accesses(hits+misses)
system.l2.WritebackDirty_accesses::total       429239                       # number of WritebackDirty accesses(hits+misses)
system.l2.WritebackClean_hits::.writebacks           66                       # number of WritebackClean hits
system.l2.WritebackClean_hits::total               66                       # number of WritebackClean hits
system.l2.WritebackClean_accesses::.writebacks           66                       # number of WritebackClean accesses(hits+misses)
system.l2.WritebackClean_accesses::total           66                       # number of WritebackClean accesses(hits+misses)
system.l2.ReadExReq_hits::.cpu.data            138668                       # number of ReadExReq hits
system.l2.ReadExReq_hits::total                138668                       # number of ReadExReq hits
system.l2.ReadExReq_misses::.cpu.data           79196                       # number of ReadExReq misses
system.l2.ReadExReq_misses::total               79196                       # number of ReadExReq misses
system.l2.ReadExReq_miss_latency::.cpu.data   7219246500                       # number of ReadExReq miss cycles
system.l2.ReadExReq_miss_latency::total    7219246500                       # number of ReadExReq miss cycles
system.l2.ReadExReq_accesses::.cpu.data        217864                       # number of ReadExReq accesses(hits+misses)
system.l2.ReadExReq_accesses::total            217864                       # number of ReadExReq accesses(hits+misses)
system.l2.ReadExReq_miss_rate::.cpu.data     0.363511                       # miss rate for ReadExReq accesses
system.l2.ReadExReq_miss_rate::total         0.363511                       # miss rate for ReadExReq accesses
system.l2.ReadExReq_avg_miss_latency::.cpu.data 91156.706147                       # average ReadExReq miss latency
system.l2.ReadExReq_avg_miss_latency::total 91156.706147                       # average ReadExReq miss latency
system.l2.ReadExReq_mshr_misses::.cpu.data        79196                       # number of ReadExReq MSHR misses
system.l2.ReadExReq_mshr_misses::total          79196                       # number of ReadExReq MSHR misses
system.l2.ReadExReq_mshr_miss_latency::.cpu.data   6427286500                       # number of ReadExReq MSHR miss cycles
system.l2.ReadExReq_mshr_miss_latency::total   6427286500                       # number of ReadExReq MSHR miss cycles
system.l2.ReadExReq_mshr_miss_rate::.cpu.data     0.363511                       # mshr miss rate for ReadExReq accesses
system.l2.ReadExReq_mshr_miss_rate::total     0.363511                       # mshr miss rate for ReadExReq accesses
system.l2.ReadExReq_avg_mshr_miss_latency::.cpu.data 81156.706147                       # average ReadExReq mshr miss latency
system.l2.ReadExReq_avg_mshr_miss_latency::total 81156.706147                       # average ReadExReq mshr miss latency
system.l2.ReadCleanReq_hits::.cpu.inst             26                       # number of ReadCleanReq hits
system.l2.ReadCleanReq_hits::total                 26                       # number of ReadCleanReq hits
system.l2.ReadCleanReq_misses::.cpu.inst          413                       # number of ReadCleanReq misses
system.l2.ReadCleanReq_misses::total              413                       # number of ReadCleanReq misses
system.l2.ReadCleanReq_miss_latency::.cpu.inst     35211000                       # number of ReadCleanReq miss cycles
system.l2.ReadCleanReq_miss_latency::total     35211000                       # number of ReadCleanReq miss cycles
system.l2.ReadCleanReq_accesses::.cpu.inst          439                       # number of ReadCleanReq accesses(hits+misses)
system.l2.ReadCleanReq_accesses::total            439                       # number of ReadCleanReq accesses(hits+misses)
system.l2.ReadCleanReq_miss_rate::.cpu.inst     0.940774                       # miss rate for ReadCleanReq accesses
system.l2.ReadCleanReq_miss_rate::total      0.940774                       # miss rate for ReadCleanReq accesses
system.l2.ReadCleanReq_avg_miss_latency::.cpu.inst 85256.658596                       # average ReadCleanReq miss latency
system.l2.ReadCleanReq_avg_miss_latency::total 85256.658596                       # average ReadCleanReq miss latency
system.l2.ReadCleanReq_mshr_misses::.cpu.inst          413                       # number of ReadCleanReq MSHR misses
system.l2.ReadCleanReq_mshr_misses::total          413                       # number of ReadCleanReq MSHR misses
system.l2.ReadCleanReq_mshr_miss_latency::.cpu.inst     31081000                       # number of ReadCleanReq MSHR miss cycles
system.l2.ReadCleanReq_mshr_miss_latency::total     31081000                       # number of ReadCleanReq MSHR miss cycles
system.l2.ReadCleanReq_mshr_miss_rate::.cpu.inst     0.940774                       # mshr miss rate for ReadCleanReq accesses
system.l2.ReadCleanReq_mshr_miss_rate::total     0.940774                       # mshr miss rate for ReadCleanReq accesses
system.l2.ReadCleanReq_avg_mshr_miss_latency::.cpu.inst 75256.658596                       # average ReadCleanReq mshr miss latency
system.l2.ReadCleanReq_avg_mshr_miss_latency::total 75256.658596                       # average ReadCleanReq mshr miss latency
system.l2.ReadSharedReq_hits::.cpu.data        215015                       # number of ReadSharedReq hits
system.l2.ReadSharedReq_hits::total            215015                       # number of ReadSharedReq hits
system.l2.ReadSharedReq_misses::.cpu.data        29177                       # number of ReadSharedReq misses
system.l2.ReadSharedReq_misses::total           29177                       # number of ReadSharedReq misses
system.l2.ReadSharedReq_miss_latency::.cpu.data   2481833500                       # number of ReadSharedReq miss cycles
system.l2.ReadSharedReq_miss_latency::total   2481833500                       # number of ReadSharedReq miss cycles
system.l2.ReadSharedReq_accesses::.cpu.data       244192                       # number of ReadSharedReq accesses(hits+misses)
system.l2.ReadSharedReq_accesses::total        244192                       # number of ReadSharedReq accesses(hits+misses)
system.l2.ReadSharedReq_miss_rate::.cpu.data     0.119484                       # miss rate for ReadSharedReq accesses
system.l2.ReadSharedReq_miss_rate::total     0.119484                       # miss rate for ReadSharedReq accesses
system.l2.ReadSharedReq_avg_miss_latency::.cpu.data 85061.298283                       # average ReadSharedReq miss latency
system.l2.ReadSharedReq_avg_miss_latency::total 85061.298283                       # average ReadSharedReq miss latency
system.l2.ReadSharedReq_mshr_hits::.cpu.data            3                       # number of ReadSharedReq MSHR hits
system.l2.ReadSharedReq_mshr_hits::total            3                       # number of ReadSharedReq MSHR hits
system.l2.ReadSharedReq_mshr_misses::.cpu.data        29174                       # number of ReadSharedReq MSHR misses
system.l2.ReadSharedReq_mshr_misses::total        29174                       # number of ReadSharedReq MSHR misses
system.l2.ReadSharedReq_mshr_miss_latency::.cpu.data   2189876000                       # number of ReadSharedReq MSHR miss cycles
system.l2.ReadSharedReq_mshr_miss_latency::total   2189876000                       # number of ReadSharedReq MSHR miss cycles
system.l2.ReadSharedReq_mshr_miss_rate::.cpu.data     0.119472                       # mshr miss rate for ReadSharedReq accesses
system.l2.ReadSharedReq_mshr_miss_rate::total     0.119472                       # mshr miss rate for ReadSharedReq accesses
system.l2.ReadSharedReq_avg_mshr_miss_latency::.cpu.data 75062.589977                       # average ReadSharedReq mshr miss latency
system.l2.ReadSharedReq_avg_mshr_miss_latency::total 75062.589977                       # average ReadSharedReq mshr miss latency
system.l2.power_state.pwrStateResidencyTicks::UNDEFINED  80082918500                       # Cumulative time (in ticks) in various power states
system.l2.tags.tagsinuse                 31570.493878                       # Cycle average of tags in use
system.l2.tags.total_refs                      923517                       # Total number of references to valid blocks.
system.l2.tags.sampled_refs                    108818                       # Sample count of references to valid blocks.
system.l2.tags.avg_refs                      8.486804                       # Average number of references to valid blocks.
system.l2.tags.warmup_cycle                     82000                       # Cycle when the warmup percentage was hit.
system.l2.tags.occ_blocks::.writebacks      22.640161                       # Average occupied blocks per requestor
system.l2.tags.occ_blocks::.cpu.inst        71.443017                       # Average occupied blocks per requestor
system.l2.tags.occ_blocks::.cpu.data     31476.410699                       # Average occupied blocks per requestor
system.l2.tags.occ_percent::.writebacks      0.000691                       # Average percentage of cache occupancy
system.l2.tags.occ_percent::.cpu.inst        0.002180                       # Average percentage of cache occupancy
system.l2.tags.occ_percent::.cpu.data        0.960584                       # Average percentage of cache occupancy
system.l2.tags.occ_percent::total            0.963455                       # Average percentage of cache occupancy
system.l2.tags.occ_task_id_blocks::1024         32768                       # Occupied blocks per task id
system.l2.tags.age_task_id_blocks_1024::3         2536                       # Occupied blocks per task id
system.l2.tags.age_task_id_blocks_1024::4        30232                       # Occupied blocks per task id
system.l2.tags.occ_task_id_percent::1024            1                       # Percentage of cache occupancy per task id
system.l2.tags.tag_accesses                  14885138                       # Number of tag accesses
system.l2.tags.data_accesses                 14885138                       # Number of data accesses
system.l2.tags.power_state.pwrStateResidencyTicks::UNDEFINED  80082918500                       # Cumulative time (in ticks) in various power states
system.mem_ctrls.avgPriority_.writebacks::samples     99156.00                       # Average QoS priority value for accepted requests
system.mem_ctrls.avgPriority_.cpu.inst::samples       826.00                       # Average QoS priority value for accepted requests
system.mem_ctrls.avgPriority_.cpu.data::samples    216740.00                       # Average QoS priority value for accepted requests
system.mem_ctrls.priorityMinLatency      0.000000018750                       # per QoS priority minimum request to response latency (s)
system.mem_ctrls.priorityMaxLatency      0.002901878250                       # per QoS priority maximum request to response latency (s)
system.mem_ctrls.numReadWriteTurnArounds         6037                       # Number of turnarounds from READ to WRITE
system.mem_ctrls.numWriteReadTurnArounds         6037                       # Number of turnarounds from WRITE to READ
system.mem_ctrls.numStayReadState              385593                       # Number of times bus staying in READ state
system.mem_ctrls.numStayWriteState              93268                       # Number of times bus staying in WRITE state
system.mem_ctrls.readReqs                      108783                       # Number of read requests accepted
system.mem_ctrls.writeReqs                      49578                       # Number of write requests accepted
system.mem_ctrls.readBursts                    217566                       # Number of controller read bursts, including those serviced by the write queue
system.mem_ctrls.writeBursts                    99156                       # Number of controller write bursts, including those merged in the write queue
system.mem_ctrls.servicedByWrQ                      0                       # Number of controller read bursts serviced by the write queue
system.mem_ctrls.mergedWrBursts                     0                       # Number of controller write bursts merged with an existing one
system.mem_ctrls.neitherReadNorWriteReqs            0                       # Number of requests that are neither read nor write
system.mem_ctrls.avgRdQLen                       2.06                       # Average read queue length when enqueuing
system.mem_ctrls.avgWrQLen                      24.46                       # Average write queue length when enqueuing
system.mem_ctrls.numRdRetry                         0                       # Number of times read queue was full causing retry
system.mem_ctrls.numWrRetry                         0                       # Number of times write queue was full causing retry
system.mem_ctrls.readPktSize::0                     0                       # Read request sizes (log2)
system.mem_ctrls.readPktSize::1                     0                       # Read request sizes (log2)
system.mem_ctrls.readPktSize::2                     0                       # Read request sizes (log2)
system.mem_ctrls.readPktSize::3                     0                       # Read request sizes (log2)
system.mem_ctrls.readPktSize::4                     0                       # Read request sizes (log2)
system.mem_ctrls.readPktSize::5                     0                       # Read request sizes (log2)
system.mem_ctrls.readPktSize::6                217566                       # Read request sizes (log2)
system.mem_ctrls.readPktSize::7                     0                       # Read request sizes (log2)
system.mem_ctrls.writePktSize::0                    0                       # Write request sizes (log2)
system.mem_ctrls.writePktSize::1                    0                       # Write request sizes (log2)
system.mem_ctrls.writePktSize::2                    0                       # Write request sizes (log2)
system.mem_ctrls.writePktSize::3                    0                       # Write request sizes (log2)
system.mem_ctrls.writePktSize::4                    0                       # Write request sizes (log2)
system.mem_ctrls.writePktSize::5                    0                       # Write request sizes (log2)
system.mem_ctrls.writePktSize::6                99156                       # Write request sizes (log2)
system.mem_ctrls.writePktSize::7                    0                       # Write request sizes (log2)
system.mem_ctrls.rdQLenPdf::0                   92142                       # What read queue length does an incoming req see
system.mem_ctrls.rdQLenPdf::1                   92344                       # What read queue length does an incoming req see
system.mem_ctrls.rdQLenPdf::2                   16635                       # What read queue length does an incoming req see
system.mem_ctrls.rdQLenPdf::3                   16433                       # What read queue length does an incoming req see
system.mem_ctrls.rdQLenPdf::4                       5                       # What read queue length does an incoming req see
system.mem_ctrls.rdQLenPdf::5                       5                       # What read queue length does an incoming req see
system.mem_ctrls.rdQLenPdf::6                       1                       # What read queue length does an incoming req see
system.mem_ctrls.rdQLenPdf::7                       1                       # What read queue length does an incoming req see
system.mem_ctrls.rdQLenPdf::8                       0                       # What read queue length does an incoming req see
system.mem_ctrls.rdQLenPdf::9                       0                       # What read queue length does an incoming req see
system.mem_ctrls.rdQLenPdf::10                      0                       # What read queue length does an incoming req see
system.mem_ctrls.rdQLenPdf::11                      0                       # What read queue length does an incoming req see
[...]
system.mem_ctrls.dram.bw_write::.writebacks     79242666                       # Write bandwidth from this memory (bytes/s)
system.mem_ctrls.dram.bw_write::total        79242666                       # Write bandwidth from this memory (bytes/s)
system.mem_ctrls.dram.bw_total::.writebacks     79242666                       # Total bandwidth to/from this memory (bytes/s)
system.mem_ctrls.dram.bw_total::.cpu.inst       660116                       # Total bandwidth to/from this memory (bytes/s)
system.mem_ctrls.dram.bw_total::.cpu.data    173212469                       # Total bandwidth to/from this memory (bytes/s)
system.mem_ctrls.dram.bw_total::total       253115251                       # Total bandwidth to/from this memory (bytes/s)
system.mem_ctrls.dram.readBursts               217566                       # Number of DRAM read bursts
system.mem_ctrls.dram.writeBursts               99139                       # Number of DRAM write bursts
system.mem_ctrls.dram.perBankRdBursts::0        13704                       # Per bank write bursts
system.mem_ctrls.dram.perBankRdBursts::1        13742                       # Per bank write bursts
system.mem_ctrls.dram.perBankRdBursts::2        13726                       # Per bank write bursts
system.mem_ctrls.dram.perBankRdBursts::3        13696                       # Per bank write bursts
system.mem_ctrls.dram.perBankRdBursts::4        13690                       # Per bank write bursts
system.mem_ctrls.dram.perBankRdBursts::5        13550                       # Per bank write bursts
system.mem_ctrls.dram.perBankRdBursts::6        13590                       # Per bank write bursts
system.mem_ctrls.dram.perBankRdBursts::7        13506                       # Per bank write bursts
system.mem_ctrls.dram.perBankRdBursts::8        13564                       # Per bank write bursts
system.mem_ctrls.dram.perBankRdBursts::9        13308                       # Per bank write bursts
system.mem_ctrls.dram.perBankRdBursts::10        13624                       # Per bank write bursts
system.mem_ctrls.dram.perBankRdBursts::11        13640                       # Per bank write bursts
system.mem_ctrls.dram.perBankRdBursts::12        13662                       # Per bank write bursts
system.mem_ctrls.dram.perBankRdBursts::13        13608                       # Per bank write bursts
system.mem_ctrls.dram.perBankRdBursts::14        13492                       # Per bank write bursts
system.mem_ctrls.dram.perBankRdBursts::15        13464                       # Per bank write bursts
system.mem_ctrls.dram.perBankWrBursts::0         6186                       # Per bank write bursts
system.mem_ctrls.dram.perBankWrBursts::1         6272                       # Per bank write bursts
system.mem_ctrls.dram.perBankWrBursts::2         6260                       # Per bank write bursts
system.mem_ctrls.dram.perBankWrBursts::3         6322                       # Per bank write bursts
system.mem_ctrls.dram.perBankWrBursts::4         6308                       # Per bank write bursts
system.mem_ctrls.dram.perBankWrBursts::5         6196                       # Per bank write bursts
system.mem_ctrls.dram.perBankWrBursts::6         6210                       # Per bank write bursts
system.mem_ctrls.dram.perBankWrBursts::7         6210                       # Per bank write bursts
system.mem_ctrls.dram.perBankWrBursts::8         6209                       # Per bank write bursts
system.mem_ctrls.dram.perBankWrBursts::9         6100                       # Per bank write bursts
system.mem_ctrls.dram.perBankWrBursts::10         6146                       # Per bank write bursts
system.mem_ctrls.dram.perBankWrBursts::11         6144                       # Per bank write bursts
system.mem_ctrls.dram.perBankWrBursts::12         6144                       # Per bank write bursts
system.mem_ctrls.dram.perBankWrBursts::13         6144                       # Per bank write bursts
system.mem_ctrls.dram.perBankWrBursts::14         6144                       # Per bank write bursts
system.mem_ctrls.dram.perBankWrBursts::15         6144                       # Per bank write bursts
system.mem_ctrls.dram.totQLat              3723594250                       # Total ticks spent queuing
system.mem_ctrls.dram.totBusLat            1087830000                       # Total ticks spent in databus transfers
system.mem_ctrls.dram.totMemAccLat         7802956750                       # Total ticks spent from burst creation until serviced by the DRAM
system.mem_ctrls.dram.avgQLat                17114.78                       # Average queueing delay per DRAM burst
system.mem_ctrls.dram.avgBusLat               5000.00                       # Average bus latency per DRAM burst
system.mem_ctrls.dram.avgMemAccLat           35864.78                       # Average memory access latency per DRAM burst
system.mem_ctrls.dram.readRowHits              184784                       # Number of row buffer hits during reads
system.mem_ctrls.dram.writeRowHits              86127                       # Number of row buffer hits during writes
system.mem_ctrls.dram.readRowHitRate            84.93                       # Row buffer hit rate for reads
system.mem_ctrls.dram.writeRowHitRate           86.87                       # Row buffer hit rate for writes
system.mem_ctrls.dram.bytesPerActivate::samples        45794                       # Bytes accessed per row activation
system.mem_ctrls.dram.bytesPerActivate::mean   442.615190                       # Bytes accessed per row activation
system.mem_ctrls.dram.bytesPerActivate::gmean   281.938200                       # Bytes accessed per row activation
system.mem_ctrls.dram.bytesPerActivate::stdev   396.127447                       # Bytes accessed per row activation
system.mem_ctrls.dram.bytesPerActivate::0-127         1146      2.50%      2.50% # Bytes accessed per row activation
system.mem_ctrls.dram.bytesPerActivate::128-255        23995     52.40%     54.90% # Bytes accessed per row activation
system.mem_ctrls.dram.bytesPerActivate::256-383         2330      5.09%     59.99% # Bytes accessed per row activation
system.mem_ctrls.dram.bytesPerActivate::384-511         1231      2.69%     62.68% # Bytes accessed per row activation
system.mem_ctrls.dram.bytesPerActivate::512-639         1035      2.26%     64.94% # Bytes accessed per row activation
system.mem_ctrls.dram.bytesPerActivate::640-767         1589      3.47%     68.41% # Bytes accessed per row activation
system.mem_ctrls.dram.bytesPerActivate::768-895         1197      2.61%     71.02% # Bytes accessed per row activation
system.mem_ctrls.dram.bytesPerActivate::896-1023          913      1.99%     73.01% # Bytes accessed per row activation
system.mem_ctrls.dram.bytesPerActivate::1024-1151        12358     26.99%    100.00% # Bytes accessed per row activation
system.mem_ctrls.dram.bytesPerActivate::total        45794                       # Bytes accessed per row activation
system.mem_ctrls.dram.bytesRead              13924224                       # Total number of bytes read from DRAM
system.mem_ctrls.dram.bytesWritten            6344896                       # Total number of bytes written to DRAM
system.mem_ctrls.dram.avgRdBW              173.872584                       # Average DRAM read bandwidth in MiBytes/s
system.mem_ctrls.dram.avgWrBW               79.229081                       # Average DRAM write bandwidth in MiBytes/s
system.mem_ctrls.dram.peakBW                 12800.00                       # Theoretical peak bandwidth in MiByte/s
system.mem_ctrls.dram.busUtil                    1.98                       # Data bus utilization in percentage
system.mem_ctrls.dram.busUtilRead                1.36                       # Data bus utilization in percentage for reads
system.mem_ctrls.dram.busUtilWrite               0.62                       # Data bus utilization in percentage for writes
system.mem_ctrls.dram.pageHitRate               85.54                       # Row buffer hit rate, read and write combined
system.mem_ctrls.dram.power_state.pwrStateResidencyTicks::UNDEFINED  80082918500                       # Cumulative time (in ticks) in various power states
system.mem_ctrls.dram.rank0.actEnergy       165983580                       # Energy for activate commands per rank (pJ)
system.mem_ctrls.dram.rank0.preEnergy        88222365                       # Energy for precharge commands per rank (pJ)
system.mem_ctrls.dram.rank0.readEnergy      779716560                       # Energy for read commands per rank (pJ)
system.mem_ctrls.dram.rank0.writeEnergy     260812080                       # Energy for write commands per rank (pJ)
system.mem_ctrls.dram.rank0.refreshEnergy 6321572400.000001                       # Energy for refresh commands per rank (pJ)
system.mem_ctrls.dram.rank0.actBackEnergy  15014568360                       # Energy for active background per rank (pJ)
system.mem_ctrls.dram.rank0.preBackEnergy  18107993760                       # Energy for precharge background per rank (pJ)
system.mem_ctrls.dram.rank0.actPowerDownEnergy            0                       # Energy for active power-down per rank (pJ)
system.mem_ctrls.dram.rank0.prePowerDownEnergy            0                       # Energy for precharge power-down per rank (pJ)
system.mem_ctrls.dram.rank0.selfRefreshEnergy            0                       # Energy for self refresh per rank (pJ)
system.mem_ctrls.dram.rank0.totalEnergy   40738869105                       # Total energy per rank (pJ)
system.mem_ctrls.dram.rank0.averagePower   508.708597                       # Core power per rank (mW)
system.mem_ctrls.dram.rank0.totalIdleTime            0                       # Total Idle time Per DRAM Rank
system.mem_ctrls.dram.rank0.pwrStateTime::IDLE  46900241250                       # Time in different power states
system.mem_ctrls.dram.rank0.pwrStateTime::REF   2674100000                       # Time in different power states
system.mem_ctrls.dram.rank0.pwrStateTime::SREF            0                       # Time in different power states
system.mem_ctrls.dram.rank0.pwrStateTime::PRE_PDN            0                       # Time in different power states
system.mem_ctrls.dram.rank0.pwrStateTime::ACT  30508577250                       # Time in different power states
system.mem_ctrls.dram.rank0.pwrStateTime::ACT_PDN            0                       # Time in different power states
system.mem_ctrls.dram.rank1.actEnergy       160985580                       # Energy for activate commands per rank (pJ)
system.mem_ctrls.dram.rank1.preEnergy        85565865                       # Energy for precharge commands per rank (pJ)
system.mem_ctrls.dram.rank1.readEnergy      773704680                       # Energy for read commands per rank (pJ)
system.mem_ctrls.dram.rank1.writeEnergy     256693500                       # Energy for write commands per rank (pJ)
system.mem_ctrls.dram.rank1.refreshEnergy 6321572400.000001                       # Energy for refresh commands per rank (pJ)
system.mem_ctrls.dram.rank1.actBackEnergy  14694782970                       # Energy for active background per rank (pJ)
system.mem_ctrls.dram.rank1.preBackEnergy  18377286720                       # Energy for precharge background per rank (pJ)
system.mem_ctrls.dram.rank1.actPowerDownEnergy            0                       # Energy for active power-down per rank (pJ)
system.mem_ctrls.dram.rank1.prePowerDownEnergy            0                       # Energy for precharge power-down per rank (pJ)
system.mem_ctrls.dram.rank1.selfRefreshEnergy            0                       # Energy for self refresh per rank (pJ)
system.mem_ctrls.dram.rank1.totalEnergy   40670591715                       # Total energy per rank (pJ)
system.mem_ctrls.dram.rank1.averagePower   507.856013                       # Core power per rank (mW)
system.mem_ctrls.dram.rank1.totalIdleTime            0                       # Total Idle time Per DRAM Rank
system.mem_ctrls.dram.rank1.pwrStateTime::IDLE  47604634500                       # Time in different power states
system.mem_ctrls.dram.rank1.pwrStateTime::REF   2674100000                       # Time in different power states
system.mem_ctrls.dram.rank1.pwrStateTime::SREF            0                       # Time in different power states
system.mem_ctrls.dram.rank1.pwrStateTime::PRE_PDN            0                       # Time in different power states
system.mem_ctrls.dram.rank1.pwrStateTime::ACT  29804184000                       # Time in different power states
system.mem_ctrls.dram.rank1.pwrStateTime::ACT_PDN            0                       # Time in different power states
system.mem_ctrls.power_state.pwrStateResidencyTicks::UNDEFINED  80082918500                       # Cumulative time (in ticks) in various power states
system.membus.trans_dist::ReadResp              29587                       # Transaction distribution
system.membus.trans_dist::WritebackDirty        49578                       # Transaction distribution
system.membus.trans_dist::CleanEvict            26136                       # Transaction distribution
system.membus.trans_dist::ReadExReq             79196                       # Transaction distribution
system.membus.trans_dist::ReadExResp            79196                       # Transaction distribution
system.membus.trans_dist::ReadSharedReq         29587                       # Transaction distribution
system.membus.pkt_count_system.l2.mem_side_port::system.mem_ctrls.port       293280                       # Packet count per connected requestor and responder (bytes)
system.membus.pkt_count::total                 293280                       # Packet count per connected requestor and responder (bytes)
system.membus.pkt_size_system.l2.mem_side_port::system.mem_ctrls.port     20270208                       # Cumulative packet size per connected requestor and responder (bytes)
system.membus.pkt_size::total                20270208                       # Cumulative packet size per connected requestor and responder (bytes)
system.membus.snoops                                0                       # Total snoops (count)
system.membus.snoopTraffic                          0                       # Total snoop traffic (bytes)
system.membus.snoop_fanout::samples            108783                       # Request fanout histogram
system.membus.snoop_fanout::mean                    0                       # Request fanout histogram
system.membus.snoop_fanout::stdev                   0                       # Request fanout histogram
system.membus.snoop_fanout::underflows              0      0.00%      0.00% # Request fanout histogram
system.membus.snoop_fanout::0                  108783    100.00%    100.00% # Request fanout histogram
system.membus.snoop_fanout::1                       0      0.00%    100.00% # Request fanout histogram
system.membus.snoop_fanout::overflows               0      0.00%    100.00% # Request fanout histogram
system.membus.snoop_fanout::min_value               0                       # Request fanout histogram
system.membus.snoop_fanout::max_value               0                       # Request fanout histogram
system.membus.snoop_fanout::total              108783                       # Request fanout histogram
system.membus.power_state.pwrStateResidencyTicks::UNDEFINED  80082918500                       # Cumulative time (in ticks) in various power states
system.membus.reqLayer0.occupancy           607962500                       # Layer occupancy (ticks)
system.membus.reqLayer0.utilization               0.8                       # Layer utilization (%)
system.membus.respLayer1.occupancy         1016097000                       # Layer occupancy (ticks)
system.membus.respLayer1.utilization              1.3                       # Layer utilization (%)
system.tol2bus.trans_dist::ReadResp            244631                       # Transaction distribution
system.tol2bus.trans_dist::WritebackDirty       478817                       # Transaction distribution
system.tol2bus.trans_dist::WritebackClean           68                       # Transaction distribution
system.tol2bus.trans_dist::CleanEvict           58265                       # Transaction distribution
system.tol2bus.trans_dist::ReadExReq           217864                       # Transaction distribution
system.tol2bus.trans_dist::ReadExResp          217864                       # Transaction distribution
system.tol2bus.trans_dist::ReadCleanReq           439                       # Transaction distribution
system.tol2bus.trans_dist::ReadSharedReq       244192                       # Transaction distribution
system.tol2bus.pkt_count_system.cpu.icache.mem_side_port::system.l2.cpu_side_port          946                       # Packet count per connected requestor and responder (bytes)
system.tol2bus.pkt_count_system.cpu.dcache.mem_side_port::system.l2.cpu_side_port      1385144                       # Packet count per connected requestor and responder (bytes)
system.tol2bus.pkt_count::total               1386090                       # Packet count per connected requestor and responder (bytes)
system.tol2bus.pkt_size_system.cpu.icache.mem_side_port::system.l2.cpu_side_port        64896                       # Cumulative packet size per connected requestor and responder (bytes)
system.tol2bus.pkt_size_system.cpu.dcache.mem_side_port::system.l2.cpu_side_port    114085760                       # Cumulative packet size per connected requestor and responder (bytes)
system.tol2bus.pkt_size::total              114150656                       # Cumulative packet size per connected requestor and responder (bytes)
system.tol2bus.snoops                           76050                       # Total snoops (count)
system.tol2bus.snoopTraffic                   6345984                       # Total snoop traffic (bytes)
system.tol2bus.snoop_fanout::samples           538545                       # Request fanout histogram
system.tol2bus.snoop_fanout::mean            0.000767                       # Request fanout histogram
system.tol2bus.snoop_fanout::stdev           0.027682                       # Request fanout histogram
system.tol2bus.snoop_fanout::underflows             0      0.00%      0.00% # Request fanout histogram
system.tol2bus.snoop_fanout::0                 538132     99.92%     99.92% # Request fanout histogram
system.tol2bus.snoop_fanout::1                    413      0.08%    100.00% # Request fanout histogram
system.tol2bus.snoop_fanout::2                      0      0.00%    100.00% # Request fanout histogram
system.tol2bus.snoop_fanout::overflows              0      0.00%    100.00% # Request fanout histogram
system.tol2bus.snoop_fanout::min_value              0                       # Request fanout histogram
system.tol2bus.snoop_fanout::max_value              1                       # Request fanout histogram
system.tol2bus.snoop_fanout::total             538545                       # Request fanout histogram
system.tol2bus.power_state.pwrStateResidencyTicks::UNDEFINED  80082918500                       # Cumulative time (in ticks) in various power states
system.tol2bus.reqLayer0.occupancy         1320411500                       # Layer occupancy (ticks)
system.tol2bus.reqLayer0.utilization              1.6                       # Layer utilization (%)
system.tol2bus.respLayer0.occupancy           1097500                       # Layer occupancy (ticks)
system.tol2bus.respLayer0.utilization             0.0                       # Layer utilization (%)
system.tol2bus.respLayer1.occupancy        1155141497                       # Layer occupancy (ticks)
system.tol2bus.respLayer1.utilization             1.4                       # Layer utilization (%)
system.voltage_domain.voltage                       1                       # Voltage in Volts

---------- End Simulation Statistics   ----------
