
---------- Begin Simulation Statistics ----------
final_tick                               371545300000                       # Number of ticks from beginning of simulation (restored from checkpoints and never reset)
host_inst_rate                                 243340                       # Simulator instruction rate (inst/s)
host_mem_usage                                 662644                       # Number of bytes of host memory used
host_op_rate                                   448279                       # Simulator op (including micro ops) rate (op/s)
host_seconds                                   410.95                       # Real time elapsed on the host
host_tick_rate                              904119795                       # Simulator tick rate (ticks/s)
sim_freq                                 1000000000000                       # Frequency of simulated ticks
sim_insts                                   100000000                       # Number of instructions simulated
sim_ops                                     184218810                       # Number of ops (including micro ops) simulated
sim_seconds                                  0.371545                       # Number of seconds simulated
sim_ticks                                371545300000                       # Number of ticks simulated
system.cpu.committedInsts                   100000000                       # Number of instructions committed
system.cpu.committedOps                     184218810                       # Number of ops (including micro ops) committed
system.cpu.cpi                               3.715453                       # CPI: cycles per instruction
system.cpu.discardedOps                          4368                       # Number of ops (including micro ops) which were discarded before commit
system.cpu.idleCycles                       153811390                       # Total number of cycles that the object has spent stopped
system.cpu.ipc                               0.269146                       # IPC: instructions per cycle
system.cpu.numCycles                        371545300                       # number of cpu cycles simulated
system.cpu.numFetchSuspends                         0                       # Number of times Execute suspended instruction fetching
system.cpu.numWorkItemsCompleted                    0                       # number of work items this cpu completed
system.cpu.numWorkItemsStarted                      0                       # number of work items this cpu started
system.cpu.op_class_0::No_OpClass                   0      0.00%      0.00% # Class of committed instruction
system.cpu.op_class_0::IntAlu                97640467     53.00%     53.00% # Class of committed instruction
system.cpu.op_class_0::IntMult                 114702      0.06%     53.06% # Class of committed instruction
system.cpu.op_class_0::IntDiv                       0      0.00%     53.06% # Class of committed instruction
system.cpu.op_class_0::FloatAdd                     0      0.00%     53.06% # Class of committed instruction
system.cpu.op_class_0::FloatCmp                     0      0.00%     53.06% # Class of committed instruction
system.cpu.op_class_0::FloatCvt                     0      0.00%     53.06% # Class of committed instruction
system.cpu.op_class_0::FloatMult                    0      0.00%     53.06% # Class of committed instruction
system.cpu.op_class_0::FloatMultAcc                 0      0.00%     53.06% # Class of committed instruction
system.cpu.op_class_0::FloatDiv                     0      0.00%     53.06% # Class of committed instruction
system.cpu.op_class_0::FloatMisc                    0      0.00%     53.06% # Class of committed instruction
system.cpu.op_class_0::FloatSqrt                    0      0.00%     53.06% # Class of committed instruction
system.cpu.op_class_0::SimdAdd                      8      0.00%     53.06% # Class of committed instruction
system.cpu.op_class_0::SimdAddAcc                   0      0.00%     53.06% # Class of committed instruction
system.cpu.op_class_0::SimdAlu                     10      0.00%     53.06% # Class of committed instruction
system.cpu.op_class_0::SimdCmp                      8      0.00%     53.06% # Class of committed instruction
system.cpu.op_class_0::SimdCvt                      0      0.00%     53.06% # Class of committed instruction
system.cpu.op_class_0::SimdMisc                     1      0.00%     53.06% # Class of committed instruction
system.cpu.op_class_0::SimdMult                     0      0.00%     53.06% # Class of committed instruction
system.cpu.op_class_0::SimdMultAcc                  0      0.00%     53.06% # Class of committed instruction
system.cpu.op_class_0::SimdShift                    0      0.00%     53.06% # Class of committed instruction
system.cpu.op_class_0::SimdShiftAcc                 0      0.00%     53.06% # Class of committed instruction
system.cpu.op_class_0::SimdDiv                      0      0.00%     53.06% # Class of committed instruction
system.cpu.op_class_0::SimdSqrt                     0      0.00%     53.06% # Class of committed instruction
system.cpu.op_class_0::SimdFloatAdd                 0      0.00%     53.06% # Class of committed instruction
system.cpu.op_class_0::SimdFloatAlu                 0      0.00%     53.06% # Class of committed instruction
system.cpu.op_class_0::SimdFloatCmp                 0      0.00%     53.06% # Class of committed instruction
system.cpu.op_class_0::SimdFloatCvt                 0      0.00%     53.06% # Class of committed instruction
system.cpu.op_class_0::SimdFloatDiv                 0      0.00%     53.06% # Class of committed instruction
system.cpu.op_class_0::SimdFloatMisc               24      0.00%     53.06% # Class of committed instruction
system.cpu.op_class_0::SimdFloatMult                0      0.00%     53.06% # Class of committed instruction
system.cpu.op_class_0::SimdFloatMultAcc             0      0.00%     53.06% # Class of committed instruction
system.cpu.op_class_0::SimdFloatSqrt                0      0.00%     53.06% # Class of committed instruction
system.cpu.op_class_0::SimdReduceAdd                0      0.00%     53.06% # Class of committed instruction
system.cpu.op_class_0::SimdReduceAlu                0      0.00%     53.06% # Class of committed instruction
system.cpu.op_class_0::SimdReduceCmp                0      0.00%     53.06% # Class of committed instruction
system.cpu.op_class_0::SimdFloatReduceAdd            0      0.00%     53.06% # Class of committed instruction
system.cpu.op_class_0::SimdFloatReduceCmp            0      0.00%     53.06% # Class of committed instruction
system.cpu.op_class_0::SimdAes                      0      0.00%     53.06% # Class of committed instruction
system.cpu.op_class_0::SimdAesMix                   0      0.00%     53.06% # Class of committed instruction
system.cpu.op_class_0::SimdSha1Hash                 0      0.00%     53.06% # Class of committed instruction
system.cpu.op_class_0::SimdSha1Hash2                0      0.00%     53.06% # Class of committed instruction
system.cpu.op_class_0::SimdSha256Hash               0      0.00%     53.06% # Class of committed instruction
system.cpu.op_class_0::SimdSha256Hash2              0      0.00%     53.06% # Class of committed instruction
system.cpu.op_class_0::SimdShaSigma2                0      0.00%     53.06% # Class of committed instruction
system.cpu.op_class_0::SimdShaSigma3                0      0.00%     53.06% # Class of committed instruction
system.cpu.op_class_0::SimdPredAlu                  0      0.00%     53.06% # Class of committed instruction
system.cpu.op_class_0::MemRead                2082677      1.13%     54.20% # Class of committed instruction
system.cpu.op_class_0::MemWrite              84380913     45.80%    100.00% # Class of committed instruction
system.cpu.op_class_0::FloatMemRead                 0      0.00%    100.00% # Class of committed instruction
system.cpu.op_class_0::FloatMemWrite                0      0.00%    100.00% # Class of committed instruction
system.cpu.op_class_0::IprAccess                    0      0.00%    100.00% # Class of committed instruction
system.cpu.op_class_0::InstPrefetch                 0      0.00%    100.00% # Class of committed instruction
system.cpu.op_class_0::total                184218810                       # Class of committed instruction
system.cpu.tickCycles                       217733910                       # Number of cycles that the object actually ticked
system.cpu.workload.numSyscalls                    19                       # Number of system calls
system.membus.snoop_filter.hit_multi_requests            0                       # Number of requests hitting in the snoop filter with multiple (>1) holders of the requested data.
system.membus.snoop_filter.hit_multi_snoops            0                       # Number of snoops hitting in the snoop filter with multiple (>1) holders of the requested data.
system.membus.snoop_filter.hit_single_requests      1307975                       # Number of requests hitting in the snoop filter with a single holder of the requested data.
system.membus.snoop_filter.hit_single_snoops            0                       # Number of snoops hitting in the snoop filter with a single holder of the requested data.
system.membus.snoop_filter.tot_requests       2624259                       # Total number of requests made to the snoop filter.
system.membus.snoop_filter.tot_snoops               0                       # Total number of snoops made to the snoop filter.
system.tol2bus.snoop_filter.hit_multi_requests           61                       # Number of requests hitting in the snoop filter with multiple (>1) holders of the requested data.
system.tol2bus.snoop_filter.hit_multi_snoops            0                       # Number of snoops hitting in the snoop filter with multiple (>1) holders of the requested data.
system.tol2bus.snoop_filter.hit_single_requests      1316065                       # Number of requests hitting in the snoop filter with a single holder of the requested data.
system.tol2bus.snoop_filter.hit_single_snoops          208                       # Number of snoops hitting in the snoop filter with a single holder of the requested data.
system.tol2bus.snoop_filter.tot_requests      2632514                       # Total number of requests made to the snoop filter.
system.tol2bus.snoop_filter.tot_snoops            208                       # Total number of snoops made to the snoop filter.
system.clk_domain.clock                          1000                       # Clock period in ticks
system.cpu.branchPred.lookups                10658285                       # Number of BP lookups
system.cpu.branchPred.condPredicted          10650039                       # Number of conditional branches predicted
system.cpu.branchPred.condIncorrect              1450                       # Number of conditional branches incorrect
system.cpu.branchPred.BTBLookups             10650204                       # Number of BTB lookups
system.cpu.branchPred.BTBHits                10648830                       # Number of BTB hits
system.cpu.branchPred.BTBHitPct             99.987099                       # BTB Hit Percentage
system.cpu.branchPred.RASUsed                    2722                       # Number of times the RAS was used to get a target.
system.cpu.branchPred.RASIncorrect                  1                       # Number of incorrect RAS predictions.
system.cpu.branchPred.indirectLookups             193                       # Number of indirect predictor lookups.
system.cpu.branchPred.indirectHits                 19                       # Number of indirect target hits.
system.cpu.branchPred.indirectMisses              174                       # Number of indirect misses.
system.cpu.branchPred.indirectMispredicted          101                       # Number of mispredicted indirect branches.
system.cpu.dcache.demand_hits::.cpu.data     83749424                       # number of demand (read+write) hits
system.cpu.dcache.demand_hits::total         83749424                       # number of demand (read+write) hits
system.cpu.dcache.overall_hits::.cpu.data     83749479                       # number of overall hits
system.cpu.dcache.overall_hits::total        83749479                       # number of overall hits
system.cpu.dcache.demand_misses::.cpu.data      2631217                       # number of demand (read+write) misses
system.cpu.dcache.demand_misses::total        2631217                       # number of demand (read+write) misses
system.cpu.dcache.overall_misses::.cpu.data      2631233                       # number of overall misses
system.cpu.dcache.overall_misses::total       2631233                       # number of overall misses
system.cpu.dcache.demand_miss_latency::.cpu.data 350524154000                       # number of demand (read+write) miss cycles
system.cpu.dcache.demand_miss_latency::total 350524154000                       # number of demand (read+write) miss cycles
system.cpu.dcache.overall_miss_latency::.cpu.data 350524154000                       # number of overall miss cycles
system.cpu.dcache.overall_miss_latency::total 350524154000                       # number of overall miss cycles
system.cpu.dcache.demand_accesses::.cpu.data     86380641                       # number of demand (read+write) accesses
system.cpu.dcache.demand_accesses::total     86380641                       # number of demand (read+write) accesses
system.cpu.dcache.overall_accesses::.cpu.data     86380712                       # number of overall (read+write) accesses
system.cpu.dcache.overall_accesses::total     86380712                       # number of overall (read+write) accesses
system.cpu.dcache.demand_miss_rate::.cpu.data     0.030461                       # miss rate for demand accesses
system.cpu.dcache.demand_miss_rate::total     0.030461                       # miss rate for demand accesses
system.cpu.dcache.overall_miss_rate::.cpu.data     0.030461                       # miss rate for overall accesses
system.cpu.dcache.overall_miss_rate::total     0.030461                       # miss rate for overall accesses
system.cpu.dcache.demand_avg_miss_latency::.cpu.data 133217.501255                       # average overall miss latency
system.cpu.dcache.demand_avg_miss_latency::total 133217.501255                       # average overall miss latency
system.cpu.dcache.overall_avg_miss_latency::.cpu.data 133216.691186                       # average overall miss latency
system.cpu.dcache.overall_avg_miss_latency::total 133216.691186                       # average overall miss latency
system.cpu.dcache.blocked_cycles::no_mshrs            0                       # number of cycles access was blocked
system.cpu.dcache.blocked_cycles::no_targets            0                       # number of cycles access was blocked
system.cpu.dcache.blocked::no_mshrs                 0                       # number of cycles access was blocked
system.cpu.dcache.blocked::no_targets               0                       # number of cycles access was blocked
system.cpu.dcache.avg_blocked_cycles::no_mshrs          nan                       # average number of cycles each access was blocked
system.cpu.dcache.avg_blocked_cycles::no_targets          nan                       # average number of cycles each access was blocked
system.cpu.dcache.writebacks::.writebacks      1315661                       # number of writebacks
system.cpu.dcache.writebacks::total           1315661                       # number of writebacks
system.cpu.dcache.demand_mshr_hits::.cpu.data      1315141                       # number of demand (read+write) MSHR hits
system.cpu.dcache.demand_mshr_hits::total      1315141                       # number of demand (read+write) MSHR hits
system.cpu.dcache.overall_mshr_hits::.cpu.data      1315141                       # number of overall MSHR hits
system.cpu.dcache.overall_mshr_hits::total      1315141                       # number of overall MSHR hits
system.cpu.dcache.demand_mshr_misses::.cpu.data      1316076                       # number of demand (read+write) MSHR misses
system.cpu.dcache.demand_mshr_misses::total      1316076                       # number of demand (read+write) MSHR misses
system.cpu.dcache.overall_mshr_misses::.cpu.data      1316084                       # number of overall MSHR misses
system.cpu.dcache.overall_mshr_misses::total      1316084                       # number of overall MSHR misses
system.cpu.dcache.demand_mshr_miss_latency::.cpu.data 168089010000                       # number of demand (read+write) MSHR miss cycles
system.cpu.dcache.demand_mshr_miss_latency::total 168089010000                       # number of demand (read+write) MSHR miss cycles
system.cpu.dcache.overall_mshr_miss_latency::.cpu.data 168089933000                       # number of overall MSHR miss cycles
system.cpu.dcache.overall_mshr_miss_latency::total 168089933000                       # number of overall MSHR miss cycles
system.cpu.dcache.demand_mshr_miss_rate::.cpu.data     0.015236                       # mshr miss rate for demand accesses
system.cpu.dcache.demand_mshr_miss_rate::total     0.015236                       # mshr miss rate for demand accesses
system.cpu.dcache.overall_mshr_miss_rate::.cpu.data     0.015236                       # mshr miss rate for overall accesses
system.cpu.dcache.overall_mshr_miss_rate::total     0.015236                       # mshr miss rate for overall accesses
system.cpu.dcache.demand_avg_mshr_miss_latency::.cpu.data 127719.835329                       # average overall mshr miss latency
system.cpu.dcache.demand_avg_mshr_miss_latency::total 127719.835329                       # average overall mshr miss latency
system.cpu.dcache.overall_avg_mshr_miss_latency::.cpu.data 127719.760289                       # average overall mshr miss latency
system.cpu.dcache.overall_avg_mshr_miss_latency::total 127719.760289                       # average overall mshr miss latency
system.cpu.dcache.replacements                1315828                       # number of replacements
system.cpu.dcache.ReadReq_hits::.cpu.data      2043835                       # number of ReadReq hits
system.cpu.dcache.ReadReq_hits::total         2043835                       # number of ReadReq hits
system.cpu.dcache.ReadReq_misses::.cpu.data          212                       # number of ReadReq misses
system.cpu.dcache.ReadReq_misses::total           212                       # number of ReadReq misses
system.cpu.dcache.ReadReq_miss_latency::.cpu.data     23748000                       # number of ReadReq miss cycles
system.cpu.dcache.ReadReq_miss_latency::total     23748000                       # number of ReadReq miss cycles
system.cpu.dcache.ReadReq_accesses::.cpu.data      2044047                       # number of ReadReq accesses(hits+misses)
system.cpu.dcache.ReadReq_accesses::total      2044047                       # number of ReadReq accesses(hits+misses)
system.cpu.dcache.ReadReq_miss_rate::.cpu.data     0.000104                       # miss rate for ReadReq accesses
system.cpu.dcache.ReadReq_miss_rate::total     0.000104                       # miss rate for ReadReq accesses
system.cpu.dcache.ReadReq_avg_miss_latency::.cpu.data 112018.867925                       # average ReadReq miss latency
system.cpu.dcache.ReadReq_avg_miss_latency::total 112018.867925                       # average ReadReq miss latency
system.cpu.dcache.ReadReq_mshr_hits::.cpu.data           22                       # number of ReadReq MSHR hits
system.cpu.dcache.ReadReq_mshr_hits::total           22                       # number of ReadReq MSHR hits
system.cpu.dcache.ReadReq_mshr_misses::.cpu.data          190                       # number of ReadReq MSHR misses
system.cpu.dcache.ReadReq_mshr_misses::total          190                       # number of ReadReq MSHR misses
system.cpu.dcache.ReadReq_mshr_miss_latency::.cpu.data     21139000                       # number of ReadReq MSHR miss cycles
system.cpu.dcache.ReadReq_mshr_miss_latency::total     21139000                       # number of ReadReq MSHR miss cycles
system.cpu.dcache.ReadReq_mshr_miss_rate::.cpu.data     0.000093                       # mshr miss rate for ReadReq accesses
system.cpu.dcache.ReadReq_mshr_miss_rate::total     0.000093                       # mshr miss rate for ReadReq accesses
system.cpu.dcache.ReadReq_avg_mshr_miss_latency::.cpu.data 111257.894737                       # average ReadReq mshr miss latency
system.cpu.dcache.ReadReq_avg_mshr_miss_latency::total 111257.894737                       # average ReadReq mshr miss latency
system.cpu.dcache.WriteReq_hits::.cpu.data     81705589                       # number of WriteReq hits
system.cpu.dcache.WriteReq_hits::total       81705589                       # number of WriteReq hits
system.cpu.dcache.WriteReq_misses::.cpu.data      2631005                       # number of WriteReq misses
system.cpu.dcache.WriteReq_misses::total      2631005                       # number of WriteReq misses
system.cpu.dcache.WriteReq_miss_latency::.cpu.data 350500406000                       # number of WriteReq miss cycles
system.cpu.dcache.WriteReq_miss_latency::total 350500406000                       # number of WriteReq miss cycles
system.cpu.dcache.WriteReq_accesses::.cpu.data     84336594                       # number of WriteReq accesses(hits+misses)
system.cpu.dcache.WriteReq_accesses::total     84336594                       # number of WriteReq accesses(hits+misses)
system.cpu.dcache.WriteReq_miss_rate::.cpu.data     0.031196                       # miss rate for WriteReq accesses
system.cpu.dcache.WriteReq_miss_rate::total     0.031196                       # miss rate for WriteReq accesses
system.cpu.dcache.WriteReq_avg_miss_latency::.cpu.data 133219.209390                       # average WriteReq miss latency
system.cpu.dcache.WriteReq_avg_miss_latency::total 133219.209390                       # average WriteReq miss latency
system.cpu.dcache.WriteReq_mshr_hits::.cpu.data      1315119                       # number of WriteReq MSHR hits
system.cpu.dcache.WriteReq_mshr_hits::total      1315119                       # number of WriteReq MSHR hits
system.cpu.dcache.WriteReq_mshr_misses::.cpu.data      1315886                       # number of WriteReq MSHR misses
system.cpu.dcache.WriteReq_mshr_misses::total      1315886                       # number of WriteReq MSHR misses
system.cpu.dcache.WriteReq_mshr_miss_latency::.cpu.data 168067871000                       # number of WriteReq MSHR miss cycles
system.cpu.dcache.WriteReq_mshr_miss_latency::total 168067871000                       # number of WriteReq MSHR miss cycles
system.cpu.dcache.WriteReq_mshr_miss_rate::.cpu.data     0.015603                       # mshr miss rate for WriteReq accesses
system.cpu.dcache.WriteReq_mshr_miss_rate::total     0.015603                       # mshr miss rate for WriteReq accesses
system.cpu.dcache.WriteReq_avg_mshr_miss_latency::.cpu.data 127722.212259                       # average WriteReq mshr miss latency
system.cpu.dcache.WriteReq_avg_mshr_miss_latency::total 127722.212259                       # average WriteReq mshr miss latency
system.cpu.dcache.SoftPFReq_hits::.cpu.data           55                       # number of SoftPFReq hits
system.cpu.dcache.SoftPFReq_hits::total            55                       # number of SoftPFReq hits
system.cpu.dcache.SoftPFReq_misses::.cpu.data           16                       # number of SoftPFReq misses
system.cpu.dcache.SoftPFReq_misses::total           16                       # number of SoftPFReq misses
system.cpu.dcache.SoftPFReq_accesses::.cpu.data           71                       # number of SoftPFReq accesses(hits+misses)
system.cpu.dcache.SoftPFReq_accesses::total           71                       # number of SoftPFReq accesses(hits+misses)
system.cpu.dcache.SoftPFReq_miss_rate::.cpu.data     0.225352                       # miss rate for SoftPFReq accesses
system.cpu.dcache.SoftPFReq_miss_rate::total     0.225352                       # miss rate for SoftPFReq accesses
system.cpu.dcache.SoftPFReq_mshr_misses::.cpu.data            8                       # number of SoftPFReq MSHR misses
system.cpu.dcache.SoftPFReq_mshr_misses::total            8                       # number of SoftPFReq MSHR misses
system.cpu.dcache.SoftPFReq_mshr_miss_latency::.cpu.data       923000                       # number of SoftPFReq MSHR miss cycles
system.cpu.dcache.SoftPFReq_mshr_miss_latency::total       923000                       # number of SoftPFReq MSHR miss cycles
system.cpu.dcache.SoftPFReq_mshr_miss_rate::.cpu.data     0.112676                       # mshr miss rate for SoftPFReq accesses
system.cpu.dcache.SoftPFReq_mshr_miss_rate::total     0.112676                       # mshr miss rate for SoftPFReq accesses
system.cpu.dcache.SoftPFReq_avg_mshr_miss_latency::.cpu.data       115375                       # average SoftPFReq mshr miss latency
system.cpu.dcache.SoftPFReq_avg_mshr_miss_latency::total       115375                       # average SoftPFReq mshr miss latency
system.cpu.dcache.LoadLockedReq_hits::.cpu.data           34                       # number of LoadLockedReq hits
system.cpu.dcache.LoadLockedReq_hits::total           34                       # number of LoadLockedReq hits
system.cpu.dcache.LoadLockedReq_accesses::.cpu.data           34                       # number of LoadLockedReq accesses(hits+misses)
system.cpu.dcache.LoadLockedReq_accesses::total           34                       # number of LoadLockedReq accesses(hits+misses)
system.cpu.dcache.StoreCondReq_hits::.cpu.data           34                       # number of StoreCondReq hits
system.cpu.dcache.StoreCondReq_hits::total           34                       # number of StoreCondReq hits
system.cpu.dcache.StoreCondReq_accesses::.cpu.data           34                       # number of StoreCondReq accesses(hits+misses)
system.cpu.dcache.StoreCondReq_accesses::total           34                       # number of StoreCondReq accesses(hits+misses)
system.cpu.dcache.power_state.pwrStateResidencyTicks::UNDEFINED 371545300000                       # Cumulative time (in ticks) in various power states
system.cpu.dcache.tags.tagsinuse           255.905062                       # Cycle average of tags in use
system.cpu.dcache.tags.total_refs            85065631                       # Total number of references to valid blocks.
system.cpu.dcache.tags.sampled_refs           1316084                       # Sample count of references to valid blocks.
system.cpu.dcache.tags.avg_refs             64.635412                       # Average number of references to valid blocks.
system.cpu.dcache.tags.warmup_cycle            258000                       # Cycle when the warmup percentage was hit.
system.cpu.dcache.tags.occ_blocks::.cpu.data   255.905062                       # Average occupied blocks per requestor
system.cpu.dcache.tags.occ_percent::.cpu.data     0.999629                       # Average percentage of cache occupancy
system.cpu.dcache.tags.occ_percent::total     0.999629                       # Average percentage of cache occupancy
system.cpu.dcache.tags.occ_task_id_blocks::1024          256                       # Occupied blocks per task id
system.cpu.dcache.tags.age_task_id_blocks_1024::0           36                       # Occupied blocks per task id
system.cpu.dcache.tags.age_task_id_blocks_1024::1          220                       # Occupied blocks per task id
system.cpu.dcache.tags.occ_task_id_percent::1024            1                       # Percentage of cache occupancy per task id
system.cpu.dcache.tags.tag_accesses         174077644                       # Number of tag accesses
system.cpu.dcache.tags.data_accesses        174077644                       # Number of data accesses
system.cpu.dcache.tags.power_state.pwrStateResidencyTicks::UNDEFINED 371545300000                       # Cumulative time (in ticks) in various power states
system.cpu.dtb.instHits                             0                       # ITB inst hits
system.cpu.dtb.instMisses                           0                       # ITB inst misses
system.cpu.dtb.readHits                             0                       # DTB read hits
system.cpu.dtb.readMisses                           0                       # DTB read misses
system.cpu.dtb.writeHits                            0                       # DTB write hits
system.cpu.dtb.writeMisses                          0                       # DTB write misses
system.cpu.dtb.inserts                              0                       # Number of times an entry is inserted into the TLB
system.cpu.dtb.flushTlb                             0                       # Number of times complete TLB was flushed
system.cpu.dtb.flushTlbMva                          0                       # Number of times TLB was flushed by MVA
system.cpu.dtb.flushTlbMvaAsid                      0                       # Number of times TLB was flushed by MVA & ASID
system.cpu.dtb.flushTlbAsid                         0                       # Number of times TLB was flushed by ASID
system.cpu.dtb.flushedEntries                       0                       # Number of entries that have been flushed from TLB
system.cpu.dtb.alignFaults                          0                       # Number of TLB faults due to alignment restrictions
system.cpu.dtb.prefetchFaults                       0                       # Number of TLB faults due to prefetch
system.cpu.dtb.domainFaults                         0                       # Number of TLB faults due to domain restrictions
system.cpu.dtb.permsFaults                          0                       # Number of TLB faults due to permissions restrictions
system.cpu.dtb.readAccesses                         0                       # DTB read accesses
system.cpu.dtb.writeAccesses                        0                       # DTB write accesses
system.cpu.dtb.instAccesses                         0                       # ITB inst accesses
system.cpu.dtb.hits                                 0                       # Total TLB (inst and data) hits
system.cpu.dtb.misses                               0                       # Total TLB (inst and data) misses
system.cpu.dtb.accesses                             0                       # Total TLB (inst and data) accesses
system.cpu.dtb.stage2_mmu.stage2_tlb.instHits            0                       # ITB inst hits
system.cpu.dtb.stage2_mmu.stage2_tlb.instMisses            0                       # ITB inst misses
system.cpu.dtb.stage2_mmu.stage2_tlb.readHits            0                       # DTB read hits
system.cpu.dtb.stage2_mmu.stage2_tlb.readMisses            0                       # DTB read misses
system.cpu.dtb.stage2_mmu.stage2_tlb.writeHits            0                       # DTB write hits
system.cpu.dtb.stage2_mmu.stage2_tlb.writeMisses            0                       # DTB write misses
system.cpu.dtb.stage2_mmu.stage2_tlb.inserts            0                       # Number of times an entry is inserted into the TLB
system.cpu.dtb.stage2_mmu.stage2_tlb.flushTlb            0                       # Number of times complete TLB was flushed
system.cpu.dtb.stage2_mmu.stage2_tlb.flushTlbMva            0                       # Number of times TLB was flushed by MVA
system.cpu.dtb.stage2_mmu.stage2_tlb.flushTlbMvaAsid            0                       # Number of times TLB was flushed by MVA & ASID
system.cpu.dtb.stage2_mmu.stage2_tlb.flushTlbAsid            0                       # Number of times TLB was flushed by ASID
system.cpu.dtb.stage2_mmu.stage2_tlb.flushedEntries            0                       # Number of entries that have been flushed from TLB
system.cpu.dtb.stage2_mmu.stage2_tlb.alignFaults            0                       # Number of TLB faults due to alignment restrictions
system.cpu.dtb.stage2_mmu.stage2_tlb.prefetchFaults            0                       # Number of TLB faults due to prefetch
system.cpu.dtb.stage2_mmu.stage2_tlb.domainFaults            0                       # Number of TLB faults due to domain restrictions
system.cpu.dtb.stage2_mmu.stage2_tlb.permsFaults            0                       # Number of TLB faults due to permissions restrictions
system.cpu.dtb.stage2_mmu.stage2_tlb.readAccesses            0                       # DTB read accesses
system.cpu.dtb.stage2_mmu.stage2_tlb.writeAccesses            0                       # DTB write accesses
system.cpu.dtb.stage2_mmu.stage2_tlb.instAccesses            0                       # ITB inst accesses
system.cpu.dtb.stage2_mmu.stage2_tlb.hits            0                       # Total TLB (inst and data) hits
system.cpu.dtb.stage2_mmu.stage2_tlb.misses            0                       # Total TLB (inst and data) misses
system.cpu.dtb.stage2_mmu.stage2_tlb.accesses            0                       # Total TLB (inst and data) accesses
system.cpu.dtb.stage2_mmu.stage2_tlb.walker.walks            0                       # Table walker walks requested
system.cpu.dtb.stage2_mmu.stage2_tlb.walker.requestOrigin_Requested::Data            0                       # Table walker requests started/completed, data/inst
system.cpu.dtb.stage2_mmu.stage2_tlb.walker.requestOrigin_Requested::Inst            0                       # Table walker requests started/completed, data/inst
system.cpu.dtb.stage2_mmu.stage2_tlb.walker.requestOrigin_Requested::total            0                       # Table walker requests started/completed, data/inst
system.cpu.dtb.stage2_mmu.stage2_tlb.walker.requestOrigin_Completed::Data            0                       # Table walker requests started/completed, data/inst
system.cpu.dtb.stage2_mmu.stage2_tlb.walker.requestOrigin_Completed::Inst            0                       # Table walker requests started/completed, data/inst
system.cpu.dtb.stage2_mmu.stage2_tlb.walker.requestOrigin_Completed::total            0                       # Table walker requests started/completed, data/inst
system.cpu.dtb.stage2_mmu.stage2_tlb.walker.requestOrigin::total            0                       # Table walker requests started/completed, data/inst
system.cpu.dtb.stage2_mmu.stage2_tlb.walker.power_state.pwrStateResidencyTicks::UNDEFINED 371545300000                       # Cumulative time (in ticks) in various power states
system.cpu.dtb.walker.walks                         0                       # Table walker walks requested
system.cpu.dtb.walker.requestOrigin_Requested::Data            0                       # Table walker requests started/completed, data/inst
system.cpu.dtb.walker.requestOrigin_Requested::Inst            0                       # Table walker requests started/completed, data/inst
system.cpu.dtb.walker.requestOrigin_Requested::total            0                       # Table walker requests started/completed, data/inst
system.cpu.dtb.walker.requestOrigin_Completed::Data            0                       # Table walker requests started/completed, data/inst
system.cpu.dtb.walker.requestOrigin_Completed::Inst            0                       # Table walker requests started/completed, data/inst
system.cpu.dtb.walker.requestOrigin_Completed::total            0                       # Table walker requests started/completed, data/inst
system.cpu.dtb.walker.requestOrigin::total            0                       # Table walker requests started/completed, data/inst
system.cpu.dtb.walker.power_state.pwrStateResidencyTicks::UNDEFINED 371545300000                       # Cumulative time (in ticks) in various power states
system.cpu.fetch2.intInstructions            45071175                       # Number of integer instructions successfully decoded
system.cpu.fetch2.fpInstructions                    0                       # Number of floating point instructions successfully decoded
system.cpu.fetch2.vecInstructions                   0                       # Number of SIMD instructions successfully decoded
system.cpu.fetch2.loadInstructions            2086436                       # Number of memory load instructions successfully decoded
system.cpu.fetch2.storeInstructions            169173                       # Number of memory store instructions successfully decoded
system.cpu.fetch2.amoInstructions                   0                       # Number of memory atomic instructions successfully decoded
system.cpu.icache.demand_hits::.cpu.inst     32004535                       # number of demand (read+write) hits
system.cpu.icache.demand_hits::total         32004535                       # number of demand (read+write) hits
system.cpu.icache.overall_hits::.cpu.inst     32004535                       # number of overall hits
system.cpu.icache.overall_hits::total        32004535                       # number of overall hits
system.cpu.icache.demand_misses::.cpu.inst          365                       # number of demand (read+write) misses
system.cpu.icache.demand_misses::total            365                       # number of demand (read+write) misses
system.cpu.icache.overall_misses::.cpu.inst          365                       # number of overall misses
system.cpu.icache.overall_misses::total           365                       # number of overall misses
system.cpu.icache.demand_miss_latency::.cpu.inst     37871000                       # number of demand (read+write) miss cycles
system.cpu.icache.demand_miss_latency::total     37871000                       # number of demand (read+write) miss cycles
system.cpu.icache.overall_miss_latency::.cpu.inst     37871000                       # number of overall miss cycles
system.cpu.icache.overall_miss_latency::total     37871000                       # number of overall miss cycles
system.cpu.icache.demand_accesses::.cpu.inst     32004900                       # number of demand (read+write) accesses
system.cpu.icache.demand_accesses::total     32004900                       # number of demand (read+write) accesses
system.cpu.icache.overall_accesses::.cpu.inst     32004900                       # number of overall (read+write) accesses
system.cpu.icache.overall_accesses::total     32004900                       # number of overall (read+write) accesses
system.cpu.icache.demand_miss_rate::.cpu.inst     0.000011                       # miss rate for demand accesses
system.cpu.icache.demand_miss_rate::total     0.000011                       # miss rate for demand accesses
system.cpu.icache.overall_miss_rate::.cpu.inst     0.000011                       # miss rate for overall accesses
system.cpu.icache.overall_miss_rate::total     0.000011                       # miss rate for overall accesses
system.cpu.icache.demand_avg_miss_latency::.cpu.inst 103756.164384                       # average overall miss latency
system.cpu.icache.demand_avg_miss_latency::total 103756.164384                       # average overall miss latency
system.cpu.icache.overall_avg_miss_latency::.cpu.inst 103756.164384                       # average overall miss latency
system.cpu.icache.overall_avg_miss_latency::total 103756.164384                       # average overall miss latency
system.cpu.icache.blocked_cycles::no_mshrs            0                       # number of cycles access was blocked
system.cpu.icache.blocked_cycles::no_targets            0                       # number of cycles access was blocked
system.cpu.icache.blocked::no_mshrs                 0                       # number of cycles access was blocked
system.cpu.icache.blocked::no_targets               0                       # number of cycles access was blocked
system.cpu.icache.avg_blocked_cycles::no_mshrs          nan                       # average number of cycles each access was blocked
system.cpu.icache.avg_blocked_cycles::no_targets          nan                       # average number of cycles each access was blocked
system.cpu.icache.writebacks::.writebacks          237                       # number of writebacks
system.cpu.icache.writebacks::total               237                       # number of writebacks
system.cpu.icache.demand_mshr_misses::.cpu.inst          365                       # number of demand (read+write) MSHR misses
system.cpu.icache.demand_mshr_misses::total          365                       # number of demand (read+write) MSHR misses
system.cpu.icache.overall_mshr_misses::.cpu.inst          365                       # number of overall MSHR misses
system.cpu.icache.overall_mshr_misses::total          365                       # number of overall MSHR misses
system.cpu.icache.demand_mshr_miss_latency::.cpu.inst     37141000                       # number of demand (read+write) MSHR miss cycles
system.cpu.icache.demand_mshr_miss_latency::total     37141000                       # number of demand (read+write) MSHR miss cycles
system.cpu.icache.overall_mshr_miss_latency::.cpu.inst     37141000                       # number of overall MSHR miss cycles
system.cpu.icache.overall_mshr_miss_latency::total     37141000                       # number of overall MSHR miss cycles
system.cpu.icache.demand_mshr_miss_rate::.cpu.inst     0.000011                       # mshr miss rate for demand accesses
system.cpu.icache.demand_mshr_miss_rate::total     0.000011                       # mshr miss rate for demand accesses
system.cpu.icache.overall_mshr_miss_rate::.cpu.inst     0.000011                       # mshr miss rate for overall accesses
system.cpu.icache.overall_mshr_miss_rate::total     0.000011                       # mshr miss rate for overall accesses
system.cpu.icache.demand_avg_mshr_miss_latency::.cpu.inst 101756.164384                       # average overall mshr miss latency
system.cpu.icache.demand_avg_mshr_miss_latency::total 101756.164384                       # average overall mshr miss latency
system.cpu.icache.overall_avg_mshr_miss_latency::.cpu.inst 101756.164384                       # average overall mshr miss latency
system.cpu.icache.overall_avg_mshr_miss_latency::total 101756.164384                       # average overall mshr miss latency
system.cpu.icache.replacements                    237                       # number of replacements
system.cpu.icache.ReadReq_hits::.cpu.inst     32004535                       # number of ReadReq hits
system.cpu.icache.ReadReq_hits::total        32004535                       # number of ReadReq hits
system.cpu.icache.ReadReq_misses::.cpu.inst          365                       # number of ReadReq misses
system.cpu.icache.ReadReq_misses::total           365                       # number of ReadReq misses
system.cpu.icache.ReadReq_miss_latency::.cpu.inst     37871000                       # number of ReadReq miss cycles
system.cpu.icache.ReadReq_miss_latency::total     37871000                       # number of ReadReq miss cycles
system.cpu.icache.ReadReq_accesses::.cpu.inst     32004900                       # number of ReadReq accesses(hits+misses)
system.cpu.icache.ReadReq_accesses::total     32004900                       # number of ReadReq accesses(hits+misses)
system.cpu.icache.ReadReq_miss_rate::.cpu.inst     0.000011                       # miss rate for ReadReq accesses
system.cpu.icache.ReadReq_miss_rate::total     0.000011                       # miss rate for ReadReq accesses
system.cpu.icache.ReadReq_avg_miss_latency::.cpu.inst 103756.164384                       # average ReadReq miss latency
system.cpu.icache.ReadReq_avg_miss_latency::total 103756.164384                       # average ReadReq miss latency
system.cpu.icache.ReadReq_mshr_misses::.cpu.inst          365                       # number of ReadReq MSHR misses
system.cpu.icache.ReadReq_mshr_misses::total          365                       # number of ReadReq MSHR misses
system.cpu.icache.ReadReq_mshr_miss_latency::.cpu.inst     37141000                       # number of ReadReq MSHR miss cycles
system.cpu.icache.ReadReq_mshr_miss_latency::total     37141000                       # number of ReadReq MSHR miss cycles
system.cpu.icache.ReadReq_mshr_miss_rate::.cpu.inst     0.000011                       # mshr miss rate for ReadReq accesses
system.cpu.icache.ReadReq_mshr_miss_rate::total     0.000011                       # mshr miss rate for ReadReq accesses
system.cpu.icache.ReadReq_avg_mshr_miss_latency::.cpu.inst 101756.164384                       # average ReadReq mshr miss latency
system.cpu.icache.ReadReq_avg_mshr_miss_latency::total 101756.164384                       # average ReadReq mshr miss latency
system.cpu.icache.power_state.pwrStateResidencyTicks::UNDEFINED 371545300000                       # Cumulative time (in ticks) in various power states
system.cpu.icache.tags.tagsinuse           125.748582                       # Cycle average of tags in use
system.cpu.icache.tags.total_refs            32004900                       # Total number of references to valid blocks.
system.cpu.icache.tags.sampled_refs               365                       # Sample count of references to valid blocks.
system.cpu.icache.tags.avg_refs          87684.657534                       # Average number of references to valid blocks.
system.cpu.icache.tags.warmup_cycle            123000                       # Cycle when the warmup percentage was hit.
system.cpu.icache.tags.occ_blocks::.cpu.inst   125.748582                       # Average occupied blocks per requestor
system.cpu.icache.tags.occ_percent::.cpu.inst     0.982411                       # Average percentage of cache occupancy
system.cpu.icache.tags.occ_percent::total     0.982411                       # Average percentage of cache occupancy
system.cpu.icache.tags.occ_task_id_blocks::1024          128                       # Occupied blocks per task id
system.cpu.icache.tags.age_task_id_blocks_1024::4          128                       # Occupied blocks per task id
system.cpu.icache.tags.occ_task_id_percent::1024            1                       # Percentage of cache occupancy per task id
system.cpu.icache.tags.tag_accesses          64010165                       # Number of tag accesses
system.cpu.icache.tags.data_accesses         64010165                       # Number of data accesses
system.cpu.icache.tags.power_state.pwrStateResidencyTicks::UNDEFINED 371545300000                       # Cumulative time (in ticks) in various power states
system.cpu.itb.instHits                             0                       # ITB inst hits
system.cpu.itb.instMisses                           0                       # ITB inst misses
system.cpu.itb.readHits                             0                       # DTB read hits
system.cpu.itb.readMisses                           0                       # DTB read misses
system.cpu.itb.writeHits                            0                       # DTB write hits
system.cpu.itb.writeMisses                          0                       # DTB write misses
system.cpu.itb.inserts                              0                       # Number of times an entry is inserted into the TLB
system.cpu.itb.flushTlb                             0                       # Number of times complete TLB was flushed
system.cpu.itb.flushTlbMva                          0                       # Number of times TLB was flushed by MVA
system.cpu.itb.flushTlbMvaAsid                      0                       # Number of times TLB was flushed by MVA & ASID
system.cpu.itb.flushTlbAsid                         0                       # Number of times TLB was flushed by ASID
system.cpu.itb.flushedEntries                       0                       # Number of entries that have been flushed from TLB
system.cpu.itb.alignFaults                          0                       # Number of TLB faults due to alignment restrictions
system.cpu.itb.prefetchFaults                       0                       # Number of TLB faults due to prefetch
system.cpu.itb.domainFaults                         0                       # Number of TLB faults due to domain restrictions
system.cpu.itb.permsFaults                          0                       # Number of TLB faults due to permissions restrictions
system.cpu.itb.readAccesses                         0                       # DTB read accesses
system.cpu.itb.writeAccesses                        0                       # DTB write accesses
system.cpu.itb.instAccesses                         0                       # ITB inst accesses
system.cpu.itb.hits                                 0                       # Total TLB (inst and data) hits
system.cpu.itb.misses                               0                       # Total TLB (inst and data) misses
system.cpu.itb.accesses                             0                       # Total TLB (inst and data) accesses
system.cpu.itb.stage2_mmu.stage2_tlb.instHits            0                       # ITB inst hits
system.cpu.itb.stage2_mmu.stage2_tlb.instMisses            0                       # ITB inst misses
system.cpu.itb.stage2_mmu.stage2_tlb.readHits            0                       # DTB read hits
system.cpu.itb.stage2_mmu.stage2_tlb.readMisses            0                       # DTB read misses
system.cpu.itb.stage2_mmu.stage2_tlb.writeHits            0                       # DTB write hits
system.cpu.itb.stage2_mmu.stage2_tlb.writeMisses            0                       # DTB write misses
system.cpu.itb.stage2_mmu.stage2_tlb.inserts            0                       # Number of times an entry is inserted into the TLB
system.cpu.itb.stage2_mmu.stage2_tlb.flushTlb            0                       # Number of times complete TLB was flushed
system.cpu.itb.stage2_mmu.stage2_tlb.flushTlbMva            0                       # Number of times TLB was flushed by MVA
system.cpu.itb.stage2_mmu.stage2_tlb.flushTlbMvaAsid            0                       # Number of times TLB was flushed by MVA & ASID
system.cpu.itb.stage2_mmu.stage2_tlb.flushTlbAsid            0                       # Number of times TLB was flushed by ASID
system.cpu.itb.stage2_mmu.stage2_tlb.flushedEntries            0                       # Number of entries that have been flushed from TLB
system.cpu.itb.stage2_mmu.stage2_tlb.alignFaults            0                       # Number of TLB faults due to alignment restrictions
system.cpu.itb.stage2_mmu.stage2_tlb.prefetchFaults            0                       # Number of TLB faults due to prefetch
system.cpu.itb.stage2_mmu.stage2_tlb.domainFaults            0                       # Number of TLB faults due to domain restrictions
system.cpu.itb.stage2_mmu.stage2_tlb.permsFaults            0                       # Number of TLB faults due to permissions restrictions
system.cpu.itb.stage2_mmu.stage2_tlb.readAccesses            0                       # DTB read accesses
system.cpu.itb.stage2_mmu.stage2_tlb.writeAccesses            0                       # DTB write accesses
system.cpu.itb.stage2_mmu.stage2_tlb.instAccesses            0                       # ITB inst accesses
system.cpu.itb.stage2_mmu.stage2_tlb.hits            0                       # Total TLB (inst and data) hits
system.cpu.itb.stage2_mmu.stage2_tlb.misses            0                       # Total TLB (inst and data) misses
system.cpu.itb.stage2_mmu.stage2_tlb.accesses            0                       # Total TLB (inst and data) accesses
system.cpu.itb.stage2_mmu.stage2_tlb.walker.walks            0                       # Table walker walks requested
system.cpu.itb.stage2_mmu.stage2_tlb.walker.requestOrigin_Requested::Data            0                       # Table walker requests started/completed, data/inst
system.cpu.itb.stage2_mmu.stage2_tlb.walker.requestOrigin_Requested::Inst            0                       # Table walker requests started/completed, data/inst
system.cpu.itb.stage2_mmu.stage2_tlb.walker.requestOrigin_Requested::total            0                       # Table walker requests started/completed, data/inst
system.cpu.itb.stage2_mmu.stage2_tlb.walker.requestOrigin_Completed::Data            0                       # Table walker requests started/completed, data/inst
system.cpu.itb.stage2_mmu.stage2_tlb.walker.requestOrigin_Completed::Inst            0                       # Table walker requests started/completed, data/inst
system.cpu.itb.stage2_mmu.stage2_tlb.walker.requestOrigin_Completed::total            0                       # Table walker requests started/completed, data/inst
system.cpu.itb.stage2_mmu.stage2_tlb.walker.requestOrigin::total            0                       # Table walker requests started/completed, data/inst
system.cpu.itb.stage2_mmu.stage2_tlb.walker.power_state.pwrStateResidencyTicks::UNDEFINED 371545300000                       # Cumulative time (in ticks) in various power states
system.cpu.itb.walker.walks                         0                       # Table walker walks requested
system.cpu.itb.walker.requestOrigin_Requested::Data            0                       # Table walker requests started/completed, data/inst
system.cpu.itb.walker.requestOrigin_Requested::Inst            0                       # Table walker requests started/completed, data/inst
system.cpu.itb.walker.requestOrigin_Requested::total            0                       # Table walker requests started/completed, data/inst
system.cpu.itb.walker.requestOrigin_Completed::Data            0                       # Table walker requests started/completed, data/inst
system.cpu.itb.walker.requestOrigin_Completed::Inst            0                       # Table walker requests started/completed, data/inst
system.cpu.itb.walker.requestOrigin_Completed::total            0                       # Table walker requests started/completed, data/inst
system.cpu.itb.walker.requestOrigin::total            0                       # Table walker requests started/completed, data/inst
system.cpu.itb.walker.power_state.pwrStateResidencyTicks::UNDEFINED 371545300000                       # Cumulative time (in ticks) in various power states
system.cpu.power_state.pwrStateResidencyTicks::ON 371545300000                       # Cumulative time (in ticks) in various power states
system.cpu.thread17522.numInsts             100000000                       # Number of Instructions committed
system.cpu.thread17522.numOps               184218810                       # Number of Ops committed
system.cpu.thread17522.numMemRefs                   0                       # Number of Memory References
system.cpu_clk_domain.clock                      1000                       # Clock period in ticks
system.cpu_voltage_domain.voltage                   1                       # Voltage in Volts
system.l2.demand_hits::.cpu.inst                   91                       # number of demand (read+write) hits
system.l2.demand_hits::.cpu.data                   54                       # number of demand (read+write) hits
system.l2.demand_hits::total                      145                       # number of demand (read+write) hits
system.l2.overall_hits::.cpu.inst                  91                       # number of overall hits
system.l2.overall_hits::.cpu.data                  54                       # number of overall hits
system.l2.overall_hits::total                     145                       # number of overall hits
system.l2.demand_misses::.cpu.inst                274                       # number of demand (read+write) misses
system.l2.demand_misses::.cpu.data            1316030                       # number of demand (read+write) misses
system.l2.demand_misses::total                1316304                       # number of demand (read+write) misses
system.l2.overall_misses::.cpu.inst               274                       # number of overall misses
system.l2.overall_misses::.cpu.data           1316030                       # number of overall misses
system.l2.overall_misses::total               1316304                       # number of overall misses
system.l2.demand_miss_latency::.cpu.inst     33543000                       # number of demand (read+write) miss cycles
system.l2.demand_miss_latency::.cpu.data 164140222000                       # number of demand (read+write) miss cycles
system.l2.demand_miss_latency::total     164173765000                       # number of demand (read+write) miss cycles
system.l2.overall_miss_latency::.cpu.inst     33543000                       # number of overall miss cycles
system.l2.overall_miss_latency::.cpu.data 164140222000                       # number of overall miss cycles
system.l2.overall_miss_latency::total    164173765000                       # number of overall miss cycles
system.l2.demand_accesses::.cpu.inst              365                       # number of demand (read+write) accesses
system.l2.demand_accesses::.cpu.data          1316084                       # number of demand (read+write) accesses
system.l2.demand_accesses::total              1316449                       # number of demand (read+write) accesses
system.l2.overall_accesses::.cpu.inst             365                       # number of overall (read+write) accesses
system.l2.overall_accesses::.cpu.data         1316084                       # number of overall (read+write) accesses
system.l2.overall_accesses::total             1316449                       # number of overall (read+write) accesses
system.l2.demand_miss_rate::.cpu.inst        0.750685                       # miss rate for demand accesses
system.l2.demand_miss_rate::.cpu.data        0.999959                       # miss rate for demand accesses
system.l2.demand_miss_rate::total            0.999890                       # miss rate for demand accesses
system.l2.overall_miss_rate::.cpu.inst       0.750685                       # miss rate for overall accesses
system.l2.overall_miss_rate::.cpu.data       0.999959                       # miss rate for overall accesses
system.l2.overall_miss_rate::total           0.999890                       # miss rate for overall accesses
system.l2.demand_avg_miss_latency::.cpu.inst 122419.708029                       # average overall miss latency
system.l2.demand_avg_miss_latency::.cpu.data 124723.769215                       # average overall miss latency
system.l2.demand_avg_miss_latency::total 124723.289605                       # average overall miss latency
system.l2.overall_avg_miss_latency::.cpu.inst 122419.708029                       # average overall miss latency
system.l2.overall_avg_miss_latency::.cpu.data 124723.769215                       # average overall miss latency
system.l2.overall_avg_miss_latency::total 124723.289605                       # average overall miss latency
system.l2.blocked_cycles::no_mshrs                  0                       # number of cycles access was blocked
system.l2.blocked_cycles::no_targets                0                       # number of cycles access was blocked
system.l2.blocked::no_mshrs                         0                       # number of cycles access was blocked
system.l2.blocked::no_targets                       0                       # number of cycles access was blocked
system.l2.avg_blocked_cycles::no_mshrs            nan                       # average number of cycles each access was blocked
system.l2.avg_blocked_cycles::no_targets          nan                       # average number of cycles each access was blocked
system.l2.writebacks::.writebacks             1307703                       # number of writebacks
system.l2.writebacks::total                   1307703                       # number of writebacks
system.l2.demand_mshr_hits::.cpu.inst               1                       # number of demand (read+write) MSHR hits
system.l2.demand_mshr_hits::.cpu.data               8                       # number of demand (read+write) MSHR hits
system.l2.demand_mshr_hits::total                   9                       # number of demand (read+write) MSHR hits
system.l2.overall_mshr_hits::.cpu.inst              1                       # number of overall MSHR hits
system.l2.overall_mshr_hits::.cpu.data              8                       # number of overall MSHR hits
system.l2.overall_mshr_hits::total                  9                       # number of overall MSHR hits
system.l2.demand_mshr_misses::.cpu.inst           273                       # number of demand (read+write) MSHR misses
system.l2.demand_mshr_misses::.cpu.data       1316022                       # number of demand (read+write) MSHR misses
system.l2.demand_mshr_misses::total           1316295                       # number of demand (read+write) MSHR misses
system.l2.overall_mshr_misses::.cpu.inst          273                       # number of overall MSHR misses
system.l2.overall_mshr_misses::.cpu.data      1316022                       # number of overall MSHR misses
system.l2.overall_mshr_misses::total          1316295                       # number of overall MSHR misses
system.l2.demand_mshr_miss_latency::.cpu.inst     27923000                       # number of demand (read+write) MSHR miss cycles
system.l2.demand_mshr_miss_latency::.cpu.data 137818960000                       # number of demand (read+write) MSHR miss cycles
system.l2.demand_mshr_miss_latency::total 137846883000                       # number of demand (read+write) MSHR miss cycles
system.l2.overall_mshr_miss_latency::.cpu.inst     27923000                       # number of overall MSHR miss cycles
system.l2.overall_mshr_miss_latency::.cpu.data 137818960000                       # number of overall MSHR miss cycles
system.l2.overall_mshr_miss_latency::total 137846883000                       # number of overall MSHR miss cycles
system.l2.demand_mshr_miss_rate::.cpu.inst     0.747945                       # mshr miss rate for demand accesses
system.l2.demand_mshr_miss_rate::.cpu.data     0.999953                       # mshr miss rate for demand accesses
system.l2.demand_mshr_miss_rate::total       0.999883                       # mshr miss rate for demand accesses
system.l2.overall_mshr_miss_rate::.cpu.inst     0.747945                       # mshr miss rate for overall accesses
system.l2.overall_mshr_miss_rate::.cpu.data     0.999953                       # mshr miss rate for overall accesses
system.l2.overall_mshr_miss_rate::total      0.999883                       # mshr miss rate for overall accesses
system.l2.demand_avg_mshr_miss_latency::.cpu.inst 102282.051282                       # average overall mshr miss latency
system.l2.demand_avg_mshr_miss_latency::.cpu.data 104723.902792                       # average overall mshr miss latency
system.l2.demand_avg_mshr_miss_latency::total 104723.396351                       # average overall mshr miss latency
system.l2.overall_avg_mshr_miss_latency::.cpu.inst 102282.051282                       # average overall mshr miss latency
system.l2.overall_avg_mshr_miss_latency::.cpu.data 104723.902792                       # average overall mshr miss latency
system.l2.overall_avg_mshr_miss_latency::total 104723.396351                       # average overall mshr miss latency
system.l2.replacements                        1308172                       # number of replacements
system.l2.WritebackDirty_hits::.writebacks      1315661                       # number of WritebackDirty hits
system.l2.WritebackDirty_hits::total          1315661                       # number of WritebackDirty hits
system.l2.WritebackDirty_accesses::.writebacks      1315661                       # number of WritebackDirty accesses(hits+misses)
system.l2.WritebackDirty_accesses::total      1315661                       # number of WritebackDirty accesses(hits+misses)
system.l2.WritebackClean_hits::.writebacks          221                       # number of WritebackClean hits
system.l2.WritebackClean_hits::total              221                       # number of WritebackClean hits
system.l2.WritebackClean_accesses::.writebacks          221                       # number of WritebackClean accesses(hits+misses)
system.l2.WritebackClean_accesses::total          221                       # number of WritebackClean accesses(hits+misses)
system.l2.ReadExReq_hits::.cpu.data                11                       # number of ReadExReq hits
system.l2.ReadExReq_hits::total                    11                       # number of ReadExReq hits
system.l2.ReadExReq_misses::.cpu.data         1315875                       # number of ReadExReq misses
system.l2.ReadExReq_misses::total             1315875                       # number of ReadExReq misses
system.l2.ReadExReq_miss_latency::.cpu.data 164119954000                       # number of ReadExReq miss cycles
system.l2.ReadExReq_miss_latency::total  164119954000                       # number of ReadExReq miss cycles
system.l2.ReadExReq_accesses::.cpu.data       1315886                       # number of ReadExReq accesses(hits+misses)
system.l2.ReadExReq_accesses::total           1315886                       # number of ReadExReq accesses(hits+misses)
system.l2.ReadExReq_miss_rate::.cpu.data     0.999992                       # miss rate for ReadExReq accesses
system.l2.ReadExReq_miss_rate::total         0.999992                       # miss rate for ReadExReq accesses
system.l2.ReadExReq_avg_miss_latency::.cpu.data 124723.058041                       # average ReadExReq miss latency
system.l2.ReadExReq_avg_miss_latency::total 124723.058041                       # average ReadExReq miss latency
system.l2.ReadExReq_mshr_misses::.cpu.data      1315875                       # number of ReadExReq MSHR misses
system.l2.ReadExReq_mshr_misses::total        1315875                       # number of ReadExReq MSHR misses
system.l2.ReadExReq_mshr_miss_latency::.cpu.data 137802454000                       # number of ReadExReq MSHR miss cycles
system.l2.ReadExReq_mshr_miss_latency::total 137802454000                       # number of ReadExReq MSHR miss cycles
system.l2.ReadExReq_mshr_miss_rate::.cpu.data     0.999992                       # mshr miss rate for ReadExReq accesses
system.l2.ReadExReq_mshr_miss_rate::total     0.999992                       # mshr miss rate for ReadExReq accesses
system.l2.ReadExReq_avg_mshr_miss_latency::.cpu.data 104723.058041                       # average ReadExReq mshr miss latency
system.l2.ReadExReq_avg_mshr_miss_latency::total 104723.058041                       # average ReadExReq mshr miss latency
system.l2.ReadCleanReq_hits::.cpu.inst             91                       # number of ReadCleanReq hits
system.l2.ReadCleanReq_hits::total                 91                       # number of ReadCleanReq hits
system.l2.ReadCleanReq_misses::.cpu.inst          274                       # number of ReadCleanReq misses
system.l2.ReadCleanReq_misses::total              274                       # number of ReadCleanReq misses
system.l2.ReadCleanReq_miss_latency::.cpu.inst     33543000                       # number of ReadCleanReq miss cycles
system.l2.ReadCleanReq_miss_latency::total     33543000                       # number of ReadCleanReq miss cycles
system.l2.ReadCleanReq_accesses::.cpu.inst          365                       # number of ReadCleanReq accesses(hits+misses)
system.l2.ReadCleanReq_accesses::total            365                       # number of ReadCleanReq accesses(hits+misses)
system.l2.ReadCleanReq_miss_rate::.cpu.inst     0.750685                       # miss rate for ReadCleanReq accesses
system.l2.ReadCleanReq_miss_rate::total      0.750685                       # miss rate for ReadCleanReq accesses
system.l2.ReadCleanReq_avg_miss_latency::.cpu.inst 122419.708029                       # average ReadCleanReq miss latency
system.l2.ReadCleanReq_avg_miss_latency::total 122419.708029                       # average ReadCleanReq miss latency
system.l2.ReadCleanReq_mshr_hits::.cpu.inst            1                       # number of ReadCleanReq MSHR hits
system.l2.ReadCleanReq_mshr_hits::total             1                       # number of ReadCleanReq MSHR hits
system.l2.ReadCleanReq_mshr_misses::.cpu.inst          273                       # number of ReadCleanReq MSHR misses
system.l2.ReadCleanReq_mshr_misses::total          273                       # number of ReadCleanReq MSHR misses
system.l2.ReadCleanReq_mshr_miss_latency::.cpu.inst     27923000                       # number of ReadCleanReq MSHR miss cycles
system.l2.ReadCleanReq_mshr_miss_latency::total     27923000                       # number of ReadCleanReq MSHR miss cycles
system.l2.ReadCleanReq_mshr_miss_rate::.cpu.inst     0.747945                       # mshr miss rate for ReadCleanReq accesses
system.l2.ReadCleanReq_mshr_miss_rate::total     0.747945                       # mshr miss rate for ReadCleanReq accesses
system.l2.ReadCleanReq_avg_mshr_miss_latency::.cpu.inst 102282.051282                       # average ReadCleanReq mshr miss latency
system.l2.ReadCleanReq_avg_mshr_miss_latency::total 102282.051282                       # average ReadCleanReq mshr miss latency
system.l2.ReadSharedReq_hits::.cpu.data            43                       # number of ReadSharedReq hits
system.l2.ReadSharedReq_hits::total                43                       # number of ReadSharedReq hits
system.l2.ReadSharedReq_misses::.cpu.data          155                       # number of ReadSharedReq misses
system.l2.ReadSharedReq_misses::total             155                       # number of ReadSharedReq misses
system.l2.ReadSharedReq_miss_latency::.cpu.data     20268000                       # number of ReadSharedReq miss cycles
system.l2.ReadSharedReq_miss_latency::total     20268000                       # number of ReadSharedReq miss cycles
system.l2.ReadSharedReq_accesses::.cpu.data          198                       # number of ReadSharedReq accesses(hits+misses)
system.l2.ReadSharedReq_accesses::total           198                       # number of ReadSharedReq accesses(hits+misses)
system.l2.ReadSharedReq_miss_rate::.cpu.data     0.782828                       # miss rate for ReadSharedReq accesses
system.l2.ReadSharedReq_miss_rate::total     0.782828                       # miss rate for ReadSharedReq accesses
system.l2.ReadSharedReq_avg_miss_latency::.cpu.data 130761.290323                       # average ReadSharedReq miss latency
system.l2.ReadSharedReq_avg_miss_latency::total 130761.290323                       # average ReadSharedReq miss latency
system.l2.ReadSharedReq_mshr_hits::.cpu.data            8                       # number of ReadSharedReq MSHR hits
system.l2.ReadSharedReq_mshr_hits::total            8                       # number of ReadSharedReq MSHR hits
system.l2.ReadSharedReq_mshr_misses::.cpu.data          147                       # number of ReadSharedReq MSHR misses
system.l2.ReadSharedReq_mshr_misses::total          147                       # number of ReadSharedReq MSHR misses
system.l2.ReadSharedReq_mshr_miss_latency::.cpu.data     16506000                       # number of ReadSharedReq MSHR miss cycles
system.l2.ReadSharedReq_mshr_miss_latency::total     16506000                       # number of ReadSharedReq MSHR miss cycles
system.l2.ReadSharedReq_mshr_miss_rate::.cpu.data     0.742424                       # mshr miss rate for ReadSharedReq accesses
system.l2.ReadSharedReq_mshr_miss_rate::total     0.742424                       # mshr miss rate for ReadSharedReq accesses
system.l2.ReadSharedReq_avg_mshr_miss_latency::.cpu.data 112285.714286                       # average ReadSharedReq mshr miss latency
system.l2.ReadSharedReq_avg_mshr_miss_latency::total 112285.714286                       # average ReadSharedReq mshr miss latency
system.l2.power_state.pwrStateResidencyTicks::UNDEFINED 371545300000                       # Cumulative time (in ticks) in various power states
system.l2.tags.tagsinuse                  8055.769496                       # Cycle average of tags in use
system.l2.tags.total_refs                     2632444                       # Total number of references to valid blocks.
system.l2.tags.sampled_refs                   1316364                       # Sample count of references to valid blocks.
system.l2.tags.avg_refs                      1.999784                       # Average number of references to valid blocks.
system.l2.tags.warmup_cycle                    102000                       # Cycle when the warmup percentage was hit.
system.l2.tags.occ_blocks::.writebacks       0.395607                       # Average occupied blocks per requestor
system.l2.tags.occ_blocks::.cpu.inst         4.203115                       # Average occupied blocks per requestor
system.l2.tags.occ_blocks::.cpu.data      8051.170774                       # Average occupied blocks per requestor
system.l2.tags.occ_percent::.writebacks      0.000048                       # Average percentage of cache occupancy
system.l2.tags.occ_percent::.cpu.inst        0.000513                       # Average percentage of cache occupancy
system.l2.tags.occ_percent::.cpu.data        0.982809                       # Average percentage of cache occupancy
system.l2.tags.occ_percent::total            0.983370                       # Average percentage of cache occupancy
system.l2.tags.occ_task_id_blocks::1024          8192                       # Occupied blocks per task id
system.l2.tags.age_task_id_blocks_1024::0           35                       # Occupied blocks per task id
system.l2.tags.age_task_id_blocks_1024::1          325                       # Occupied blocks per task id
system.l2.tags.age_task_id_blocks_1024::2         3236                       # Occupied blocks per task id
system.l2.tags.age_task_id_blocks_1024::3         4596                       # Occupied blocks per task id
system.l2.tags.occ_task_id_percent::1024            1                       # Percentage of cache occupancy per task id
system.l2.tags.tag_accesses                  22375988                       # Number of tag accesses
system.l2.tags.data_accesses                 22375988                       # Number of data accesses
system.l2.tags.power_state.pwrStateResidencyTicks::UNDEFINED 371545300000                       # Cumulative time (in ticks) in various power states
system.mem_ctrls.avgPriority_.writebacks::samples   5230812.00                       # Average QoS priority value for accepted requests
system.mem_ctrls.avgPriority_.cpu.inst::samples      1092.00                       # Average QoS priority value for accepted requests
system.mem_ctrls.avgPriority_.cpu.data::samples   5264088.00                       # Average QoS priority value for accepted requests
system.mem_ctrls.priorityMinLatency      0.000000018750                       # per QoS priority minimum request to response latency (s)
system.mem_ctrls.priorityMaxLatency      0.000181134500                       # per QoS priority maximum request to response latency (s)
system.mem_ctrls.numReadWriteTurnArounds       263063                       # Number of turnarounds from READ to WRITE
system.mem_ctrls.numWriteReadTurnArounds       263063                       # Number of turnarounds from WRITE to READ
system.mem_ctrls.numStayReadState             7960128                       # Number of times bus staying in READ state
system.mem_ctrls.numStayWriteState            4991106                       # Number of times bus staying in WRITE state
system.mem_ctrls.readReqs                     1316295                       # Number of read requests accepted
system.mem_ctrls.writeReqs                    1307703                       # Number of write requests accepted
system.mem_ctrls.readBursts                   5265180                       # Number of controller read bursts, including those serviced by the write queue
system.mem_ctrls.writeBursts                  5230812                       # Number of controller write bursts, including those merged in the write queue
system.mem_ctrls.servicedByWrQ                      0                       # Number of controller read bursts serviced by the write queue
system.mem_ctrls.mergedWrBursts                     0                       # Number of controller write bursts merged with an existing one
system.mem_ctrls.neitherReadNorWriteReqs            0                       # Number of requests that are neither read nor write
system.mem_ctrls.avgRdQLen                       4.01                       # Average read queue length when enqueuing
system.mem_ctrls.avgWrQLen                      26.84                       # Average write queue length when enqueuing
system.mem_ctrls.numRdRetry                         0                       # Number of times read queue was full causing retry
system.mem_ctrls.numWrRetry                         0                       # Number of times write queue was full causing retry
system.mem_ctrls.readPktSize::0                     0                       # Read request sizes (log2)
system.mem_ctrls.readPktSize::1                     0                       # Read request sizes (log2)
system.mem_ctrls.readPktSize::2                     0                       # Read request sizes (log2)
system.mem_ctrls.readPktSize::3                     0                       # Read request sizes (log2)
system.mem_ctrls.readPktSize::4                     0                       # Read request sizes (log2)
system.mem_ctrls.readPktSize::5                     0                       # Read request sizes (log2)
system.mem_ctrls.readPktSize::6               5265180                       # Read request sizes (log2)
system.mem_ctrls.readPktSize::7                     0                       # Read request sizes (log2)
system.mem_ctrls.readPktSize::8                     0                       # Read request sizes (log2)
system.mem_ctrls.writePktSize::0                    0                       # Write request sizes (log2)
system.mem_ctrls.writePktSize::1                    0                       # Write request sizes (log2)
system.mem_ctrls.writePktSize::2                    0                       # Write request sizes (log2)
system.mem_ctrls.writePktSize::3                    0                       # Write request sizes (log2)
system.mem_ctrls.writePktSize::4                    0                       # Write request sizes (log2)
system.mem_ctrls.writePktSize::5                    0                       # Write request sizes (log2)
system.mem_ctrls.writePktSize::6              5230812                       # Write request sizes (log2)
system.mem_ctrls.writePktSize::7                    0                       # Write request sizes (log2)
system.mem_ctrls.writePktSize::8                    0                       # Write request sizes (log2)
system.mem_ctrls.rdQLenPdf::0                 1316064                       # What read queue length does an incoming req see
system.mem_ctrls.rdQLenPdf::1                 1316064                       # What read queue length does an incoming req see
system.mem_ctrls.rdQLenPdf::2                 1316162                       # What read queue length does an incoming req see
system.mem_ctrls.rdQLenPdf::3                 1316164                       # What read queue length does an incoming req see
system.mem_ctrls.rdQLenPdf::4                     227                       # What read queue length does an incoming req see
system.mem_ctrls.rdQLenPdf::5                     227                       # What read queue length does an incoming req see
system.mem_ctrls.rdQLenPdf::6                     129                       # What read queue length does an incoming req see
system.mem_ctrls.rdQLenPdf::7                     127                       # What read queue length does an incoming req see
[...]
system.mem_ctrls.dram.bw_write::.writebacks    901025980                       # Write bandwidth from this memory (bytes/s)
system.mem_ctrls.dram.bw_write::total       901025980                       # Write bandwidth from this memory (bytes/s)
system.mem_ctrls.dram.bw_total::.writebacks    901025980                       # Total bandwidth to/from this memory (bytes/s)
system.mem_ctrls.dram.bw_total::.cpu.inst       188101                       # Total bandwidth to/from this memory (bytes/s)
system.mem_ctrls.dram.bw_total::.cpu.data    906757889                       # Total bandwidth to/from this memory (bytes/s)
system.mem_ctrls.dram.bw_total::total      1807971970                       # Total bandwidth to/from this memory (bytes/s)
system.mem_ctrls.dram.readBursts              5265180                       # Number of DRAM read bursts
system.mem_ctrls.dram.writeBursts             5230785                       # Number of DRAM write bursts
system.mem_ctrls.dram.perBankRdBursts::0       329008                       # Per bank write bursts
system.mem_ctrls.dram.perBankRdBursts::1       329212                       # Per bank write bursts
system.mem_ctrls.dram.perBankRdBursts::2       329196                       # Per bank write bursts
system.mem_ctrls.dram.perBankRdBursts::3       329144                       # Per bank write bursts
system.mem_ctrls.dram.perBankRdBursts::4       329064                       # Per bank write bursts
system.mem_ctrls.dram.perBankRdBursts::5       329144                       # Per bank write bursts
system.mem_ctrls.dram.perBankRdBursts::6       329156                       # Per bank write bursts
system.mem_ctrls.dram.perBankRdBursts::7       329084                       # Per bank write bursts
system.mem_ctrls.dram.perBankRdBursts::8       328932                       # Per bank write bursts
system.mem_ctrls.dram.perBankRdBursts::9       328924                       # Per bank write bursts
system.mem_ctrls.dram.perBankRdBursts::10       328952                       # Per bank write bursts
system.mem_ctrls.dram.perBankRdBursts::11       328972                       # Per bank write bursts
system.mem_ctrls.dram.perBankRdBursts::12       329156                       # Per bank write bursts
system.mem_ctrls.dram.perBankRdBursts::13       329120                       # Per bank write bursts
system.mem_ctrls.dram.perBankRdBursts::14       329104                       # Per bank write bursts
system.mem_ctrls.dram.perBankRdBursts::15       329012                       # Per bank write bursts
system.mem_ctrls.dram.perBankWrBursts::0       326824                       # Per bank write bursts
system.mem_ctrls.dram.perBankWrBursts::1       327004                       # Per bank write bursts
system.mem_ctrls.dram.perBankWrBursts::2       327005                       # Per bank write bursts
system.mem_ctrls.dram.perBankWrBursts::3       327056                       # Per bank write bursts
system.mem_ctrls.dram.perBankWrBursts::4       326964                       # Per bank write bursts
system.mem_ctrls.dram.perBankWrBursts::5       327020                       # Per bank write bursts
system.mem_ctrls.dram.perBankWrBursts::6       327016                       # Per bank write bursts
system.mem_ctrls.dram.perBankWrBursts::7       326996                       # Per bank write bursts
system.mem_ctrls.dram.perBankWrBursts::8       326788                       # Per bank write bursts
system.mem_ctrls.dram.perBankWrBursts::9       326784                       # Per bank write bursts
system.mem_ctrls.dram.perBankWrBursts::10       326784                       # Per bank write bursts
system.mem_ctrls.dram.perBankWrBursts::11       326860                       # Per bank write bursts
system.mem_ctrls.dram.perBankWrBursts::12       326948                       # Per bank write bursts
system.mem_ctrls.dram.perBankWrBursts::13       326940                       # Per bank write bursts
system.mem_ctrls.dram.perBankWrBursts::14       326892                       # Per bank write bursts
system.mem_ctrls.dram.perBankWrBursts::15       326904                       # Per bank write bursts
system.mem_ctrls.dram.totQLat            142972357500                       # Total ticks spent queuing
system.mem_ctrls.dram.totBusLat           26325900000                       # Total ticks spent in databus transfers
system.mem_ctrls.dram.totMemAccLat       241694482500                       # Total ticks spent from burst creation until serviced by the DRAM
system.mem_ctrls.dram.avgQLat                27154.32                       # Average queueing delay per DRAM burst
system.mem_ctrls.dram.avgBusLat               5000.00                       # Average bus latency per DRAM burst
system.mem_ctrls.dram.avgMemAccLat           45904.32                       # Average memory access latency per DRAM burst
system.mem_ctrls.dram.readRowHits             4740140                       # Number of row buffer hits during reads
system.mem_ctrls.dram.writeRowHits            4697261                       # Number of row buffer hits during writes
system.mem_ctrls.dram.readRowHitRate            90.03                       # Row buffer hit rate for reads
system.mem_ctrls.dram.writeRowHitRate           89.80                       # Row buffer hit rate for writes
system.mem_ctrls.dram.bytesPerActivate::samples      1058563                       # Bytes accessed per row activation
system.mem_ctrls.dram.bytesPerActivate::mean   634.578189                       # Bytes accessed per row activation
system.mem_ctrls.dram.bytesPerActivate::gmean   503.555344                       # Bytes accessed per row activation
system.mem_ctrls.dram.bytesPerActivate::stdev   372.278895                       # Bytes accessed per row activation
system.mem_ctrls.dram.bytesPerActivate::0-127        25754      2.43%      2.43% # Bytes accessed per row activation
system.mem_ctrls.dram.bytesPerActivate::128-255        18885      1.78%      4.22% # Bytes accessed per row activation
system.mem_ctrls.dram.bytesPerActivate::256-383       425972     40.24%     44.46% # Bytes accessed per row activation
system.mem_ctrls.dram.bytesPerActivate::384-511         8676      0.82%     45.28% # Bytes accessed per row activation
system.mem_ctrls.dram.bytesPerActivate::512-639        53349      5.04%     50.32% # Bytes accessed per row activation
system.mem_ctrls.dram.bytesPerActivate::640-767         8000      0.76%     51.07% # Bytes accessed per row activation
system.mem_ctrls.dram.bytesPerActivate::768-895        40261      3.80%     54.88% # Bytes accessed per row activation
system.mem_ctrls.dram.bytesPerActivate::896-1023        13401      1.27%     56.14% # Bytes accessed per row activation
system.mem_ctrls.dram.bytesPerActivate::1024-1151       464265     43.86%    100.00% # Bytes accessed per row activation
system.mem_ctrls.dram.bytesPerActivate::total      1058563                       # Bytes accessed per row activation
system.mem_ctrls.dram.bytesRead             336971520                       # Total number of bytes read from DRAM
system.mem_ctrls.dram.bytesWritten          334770240                       # Total number of bytes written to DRAM
system.mem_ctrls.dram.avgRdBW              906.945990                       # Average DRAM read bandwidth in MiBytes/s
system.mem_ctrls.dram.avgWrBW              901.021329                       # Average DRAM write bandwidth in MiBytes/s
system.mem_ctrls.dram.peakBW                 12800.00                       # Theoretical peak bandwidth in MiByte/s
system.mem_ctrls.dram.busUtil                   14.12                       # Data bus utilization in percentage
system.mem_ctrls.dram.busUtilRead                7.09                       # Data bus utilization in percentage for reads
system.mem_ctrls.dram.busUtilWrite               7.04                       # Data bus utilization in percentage for writes
system.mem_ctrls.dram.pageHitRate               89.91                       # Row buffer hit rate, read and write combined
system.mem_ctrls.dram.power_state.pwrStateResidencyTicks::UNDEFINED 371545300000                       # Cumulative time (in ticks) in various power states
system.mem_ctrls.dram.rank0.actEnergy      3779808900                       # Energy for activate commands per rank (pJ)
system.mem_ctrls.dram.rank0.preEnergy      2009012280                       # Energy for precharge commands per rank (pJ)
system.mem_ctrls.dram.rank0.readEnergy    18799677120                       # Energy for read commands per rank (pJ)
system.mem_ctrls.dram.rank0.writeEnergy   13654919700                       # Energy for write commands per rank (pJ)
system.mem_ctrls.dram.rank0.refreshEnergy 29329391520.000004                       # Energy for refresh commands per rank (pJ)
system.mem_ctrls.dram.rank0.actBackEnergy  84922100370                       # Energy for active background per rank (pJ)
system.mem_ctrls.dram.rank0.preBackEnergy  71160047520                       # Energy for precharge background per rank (pJ)
system.mem_ctrls.dram.rank0.actPowerDownEnergy            0                       # Energy for active power-down per rank (pJ)
system.mem_ctrls.dram.rank0.prePowerDownEnergy            0                       # Energy for precharge power-down per rank (pJ)
system.mem_ctrls.dram.rank0.selfRefreshEnergy            0                       # Energy for self refresh per rank (pJ)
system.mem_ctrls.dram.rank0.totalEnergy  223654957410                       # Total energy per rank (pJ)
system.mem_ctrls.dram.rank0.averagePower   601.958785                       # Core power per rank (mW)
system.mem_ctrls.dram.rank0.totalIdleTime            0                       # Total Idle time Per DRAM Rank
system.mem_ctrls.dram.rank0.pwrStateTime::IDLE 181245181000                       # Time in different power states
system.mem_ctrls.dram.rank0.pwrStateTime::REF  12406680000                       # Time in different power states
system.mem_ctrls.dram.rank0.pwrStateTime::SREF            0                       # Time in different power states
system.mem_ctrls.dram.rank0.pwrStateTime::PRE_PDN            0                       # Time in different power states
system.mem_ctrls.dram.rank0.pwrStateTime::ACT 177893439000                       # Time in different power states
system.mem_ctrls.dram.rank0.pwrStateTime::ACT_PDN            0                       # Time in different power states
system.mem_ctrls.dram.rank1.actEnergy      3778338060                       # Energy for activate commands per rank (pJ)
system.mem_ctrls.dram.rank1.preEnergy      2008234305                       # Energy for precharge commands per rank (pJ)
system.mem_ctrls.dram.rank1.readEnergy    18793708080                       # Energy for read commands per rank (pJ)
system.mem_ctrls.dram.rank1.writeEnergy   13649778000                       # Energy for write commands per rank (pJ)
system.mem_ctrls.dram.rank1.refreshEnergy 29329391520.000004                       # Energy for refresh commands per rank (pJ)
system.mem_ctrls.dram.rank1.actBackEnergy  84937339890                       # Energy for active background per rank (pJ)
system.mem_ctrls.dram.rank1.preBackEnergy  71147214240                       # Energy for precharge background per rank (pJ)
system.mem_ctrls.dram.rank1.actPowerDownEnergy            0                       # Energy for active power-down per rank (pJ)
system.mem_ctrls.dram.rank1.prePowerDownEnergy            0                       # Energy for precharge power-down per rank (pJ)
system.mem_ctrls.dram.rank1.selfRefreshEnergy            0                       # Energy for self refresh per rank (pJ)
system.mem_ctrls.dram.rank1.totalEnergy  223644004095                       # Total energy per rank (pJ)
system.mem_ctrls.dram.rank1.averagePower   601.929305                       # Core power per rank (mW)
system.mem_ctrls.dram.rank1.totalIdleTime            0                       # Total Idle time Per DRAM Rank
system.mem_ctrls.dram.rank1.pwrStateTime::IDLE 181212353750                       # Time in different power states
system.mem_ctrls.dram.rank1.pwrStateTime::REF  12406680000                       # Time in different power states
system.mem_ctrls.dram.rank1.pwrStateTime::SREF            0                       # Time in different power states
system.mem_ctrls.dram.rank1.pwrStateTime::PRE_PDN            0                       # Time in different power states
system.mem_ctrls.dram.rank1.pwrStateTime::ACT 177926266250                       # Time in different power states
system.mem_ctrls.dram.rank1.pwrStateTime::ACT_PDN            0                       # Time in different power states
system.mem_ctrls.power_state.pwrStateResidencyTicks::UNDEFINED 371545300000                       # Cumulative time (in ticks) in various power states
system.membus.trans_dist::ReadResp                420                       # Transaction distribution
system.membus.trans_dist::WritebackDirty      1307703                       # Transaction distribution
system.membus.trans_dist::CleanEvict              261                       # Transaction distribution
system.membus.trans_dist::ReadExReq           1315875                       # Transaction distribution
system.membus.trans_dist::ReadExResp          1315875                       # Transaction distribution
system.membus.trans_dist::ReadSharedReq           420                       # Transaction distribution
system.membus.pkt_count_system.l2.mem_side_port::system.mem_ctrls.port      3940554                       # Packet count per connected requestor and responder (bytes)
system.membus.pkt_count::total                3940554                       # Packet count per connected requestor and responder (bytes)
system.membus.pkt_size_system.l2.mem_side_port::system.mem_ctrls.port    671743488                       # Cumulative packet size per connected requestor and responder (bytes)
system.membus.pkt_size::total               671743488                       # Cumulative packet size per connected requestor and responder (bytes)
system.membus.snoops                                0                       # Total snoops (count)
system.membus.snoopTraffic                          0                       # Total snoop traffic (bytes)
system.membus.snoop_fanout::samples           1316295                       # Request fanout histogram
system.membus.snoop_fanout::mean                    0                       # Request fanout histogram
system.membus.snoop_fanout::stdev                   0                       # Request fanout histogram
system.membus.snoop_fanout::underflows              0      0.00%      0.00% # Request fanout histogram
system.membus.snoop_fanout::0                 1316295    100.00%    100.00% # Request fanout histogram
system.membus.snoop_fanout::1                       0      0.00%    100.00% # Request fanout histogram
system.membus.snoop_fanout::overflows               0      0.00%    100.00% # Request fanout histogram
system.membus.snoop_fanout::min_value               0                       # Request fanout histogram
system.membus.snoop_fanout::max_value               0                       # Request fanout histogram
system.membus.snoop_fanout::total             1316295                       # Request fanout histogram
system.membus.power_state.pwrStateResidencyTicks::UNDEFINED 371545300000                       # Cumulative time (in ticks) in various power states
system.membus.reqLayer0.occupancy         23547507000                       # Layer occupancy (ticks)
system.membus.reqLayer0.utilization               6.3                       # Layer utilization (%)
system.membus.respLayer1.occupancy        22796398750                       # Layer occupancy (ticks)
system.membus.respLayer1.utilization              6.1                       # Layer utilization (%)
system.tol2bus.trans_dist::ReadResp               563                       # Transaction distribution
system.tol2bus.trans_dist::WritebackDirty      2623364                       # Transaction distribution
system.tol2bus.trans_dist::WritebackClean          237                       # Transaction distribution
system.tol2bus.trans_dist::CleanEvict             636                       # Transaction distribution
system.tol2bus.trans_dist::ReadExReq          1315886                       # Transaction distribution
system.tol2bus.trans_dist::ReadExResp         1315886                       # Transaction distribution
system.tol2bus.trans_dist::ReadCleanReq           365                       # Transaction distribution
system.tol2bus.trans_dist::ReadSharedReq          198                       # Transaction distribution
system.tol2bus.pkt_count_system.cpu.icache.mem_side_port::system.l2.cpu_side_port          967                       # Packet count per connected requestor and responder (bytes)
system.tol2bus.pkt_count_system.cpu.dcache.mem_side_port::system.l2.cpu_side_port      3947996                       # Packet count per connected requestor and responder (bytes)
system.tol2bus.pkt_count::total               3948963                       # Packet count per connected requestor and responder (bytes)
system.tol2bus.pkt_size_system.cpu.icache.mem_side_port::system.l2.cpu_side_port       154112                       # Cumulative packet size per connected requestor and responder (bytes)
system.tol2bus.pkt_size_system.cpu.dcache.mem_side_port::system.l2.cpu_side_port    673726720                       # Cumulative packet size per connected requestor and responder (bytes)
system.tol2bus.pkt_size::total              673880832                       # Cumulative packet size per connected requestor and responder (bytes)
system.tol2bus.snoops                         1308172                       # Total snoops (count)
system.tol2bus.snoopTraffic                 334771968                       # Total snoop traffic (bytes)
system.tol2bus.snoop_fanout::samples          2624621                       # Request fanout histogram
system.tol2bus.snoop_fanout::mean            0.000102                       # Request fanout histogram
system.tol2bus.snoop_fanout::stdev           0.010123                       # Request fanout histogram
system.tol2bus.snoop_fanout::underflows             0      0.00%      0.00% # Request fanout histogram
system.tol2bus.snoop_fanout::0                2624352     99.99%     99.99% # Request fanout histogram
system.tol2bus.snoop_fanout::1                    269      0.01%    100.00% # Request fanout histogram
system.tol2bus.snoop_fanout::2                      0      0.00%    100.00% # Request fanout histogram
system.tol2bus.snoop_fanout::overflows              0      0.00%    100.00% # Request fanout histogram
system.tol2bus.snoop_fanout::min_value              0                       # Request fanout histogram
system.tol2bus.snoop_fanout::max_value              1                       # Request fanout histogram
system.tol2bus.snoop_fanout::total            2624621                       # Request fanout histogram
system.tol2bus.power_state.pwrStateResidencyTicks::UNDEFINED 371545300000                       # Cumulative time (in ticks) in various power states
system.tol2bus.reqLayer0.occupancy        13159698000                       # Layer occupancy (ticks)
system.tol2bus.reqLayer0.utilization              3.5                       # Layer utilization (%)
system.tol2bus.respLayer0.occupancy           3285999                       # Layer occupancy (ticks)
system.tol2bus.respLayer0.utilization             0.0                       # Layer utilization (%)
system.tol2bus.respLayer1.occupancy       11844763992                       # Layer occupancy (ticks)
system.tol2bus.respLayer1.utilization             3.2                       # Layer utilization (%)
system.voltage_domain.voltage                       1                       # Voltage in Volts

---------- End Simulation Statistics   ----------
