
---------- Begin Simulation Statistics ----------
final_tick                               371468069000                       # Number of ticks from beginning of simulation (restored from checkpoints and never reset)
host_inst_rate                                 219856                       # Simulator instruction rate (inst/s)
host_mem_usage                                 666488                       # Number of bytes of host memory used
host_op_rate                                   405016                       # Simulator op (including micro ops) rate (op/s)
host_seconds                                   454.84                       # Real time elapsed on the host
host_tick_rate                              816694757                       # Simulator tick rate (ticks/s)
sim_freq                                 1000000000000                       # Frequency of simulated ticks
sim_insts                                   100000000                       # Number of instructions simulated
sim_ops                                     184218810                       # Number of ops (including micro ops) simulated
sim_seconds                                  0.371468                       # Number of seconds simulated
sim_ticks                                371468069000                       # Number of ticks simulated
system.cpu.committedInsts                   100000000                       # Number of instructions committed
system.cpu.committedOps                     184218810                       # Number of ops (including micro ops) committed
system.cpu.cpi                               3.714681                       # CPI: cycles per instruction
system.cpu.discardedOps                          4416                       # Number of ops (including micro ops) which were discarded before commit
system.cpu.idleCycles                       153734353                       # Total number of cycles that the object has spent stopped
system.cpu.ipc                               0.269202                       # IPC: instructions per cycle
system.cpu.numCycles                        371468069                       # number of cpu cycles simulated
system.cpu.numFetchSuspends                         0                       # Number of times Execute suspended instruction fetching
system.cpu.numWorkItemsCompleted                    0                       # number of work items this cpu completed
system.cpu.numWorkItemsStarted                      0                       # number of work items this cpu started
system.cpu.op_class_0::No_OpClass                   0      0.00%      0.00% # Class of committed instruction
system.cpu.op_class_0::IntAlu                97640467     53.00%     53.00% # Class of committed instruction
system.cpu.op_class_0::IntMult                 114702      0.06%     53.06% # Class of committed instruction
system.cpu.op_class_0::IntDiv                       0      0.00%     53.06% # Class of committed instruction
system.cpu.op_class_0::FloatAdd                     0      0.00%     53.06% # Class of committed instruction
system.cpu.op_class_0::FloatCmp                     0      0.00%     53.06% # Class of committed instruction
system.cpu.op_class_0::FloatCvt                     0      0.00%     53.06% # Class of committed instruction
system.cpu.op_class_0::FloatMult                    0      0.00%     53.06% # Class of committed instruction
system.cpu.op_class_0::FloatMultAcc                 0      0.00%     53.06% # Class of committed instruction
system.cpu.op_class_0::FloatDiv                     0      0.00%     53.06% # Class of committed instruction
system.cpu.op_class_0::FloatMisc                    0      0.00%     53.06% # Class of committed instruction
system.cpu.op_class_0::FloatSqrt                    0      0.00%     53.06% # Class of committed instruction
system.cpu.op_class_0::SimdAdd                      8      0.00%     53.06% # Class of committed instruction
system.cpu.op_class_0::SimdAddAcc                   0      0.00%     53.06% # Class of committed instruction
system.cpu.op_class_0::SimdAlu                     10      0.00%     53.06% # Class of committed instruction
system.cpu.op_class_0::SimdCmp                      8      0.00%     53.06% # Class of committed instruction
system.cpu.op_class_0::SimdCvt                      0      0.00%     53.06% # Class of committed instruction
system.cpu.op_class_0::SimdMisc                     1      0.00%     53.06% # Class of committed instruction
system.cpu.op_class_0::SimdMult                     0      0.00%     53.06% # Class of committed instruction
system.cpu.op_class_0::SimdMultAcc                  0      0.00%     53.06% # Class of committed instruction
system.cpu.op_class_0::SimdShift                    0      0.00%     53.06% # Class of committed instruction
system.cpu.op_class_0::SimdShiftAcc                 0      0.00%     53.06% # Class of committed instruction
system.cpu.op_class_0::SimdDiv                      0      0.00%     53.06% # Class of committed instruction
system.cpu.op_class_0::SimdSqrt                     0      0.00%     53.06% # Class of committed instruction
system.cpu.op_class_0::SimdFloatAdd                 0      0.00%     53.06% # Class of committed instruction
system.cpu.op_class_0::SimdFloatAlu                 0      0.00%     53.06% # Class of committed instruction
system.cpu.op_class_0::SimdFloatCmp                 0      0.00%     53.06% # Class of committed instruction
system.cpu.op_class_0::SimdFloatCvt                 0      0.00%     53.06% # Class of committed instruction
system.cpu.op_class_0::SimdFloatDiv                 0      0.00%     53.06% # Class of committed instruction
system.cpu.op_class_0::SimdFloatMisc               24      0.00%     53.06% # Class of committed instruction
system.cpu.op_class_0::SimdFloatMult                0      0.00%     53.06% # Class of committed instruction
system.cpu.op_class_0::SimdFloatMultAcc             0      0.00%     53.06% # Class of committed instruction
system.cpu.op_class_0::SimdFloatSqrt                0      0.00%     53.06% # Class of committed instruction
system.cpu.op_class_0::SimdReduceAdd                0      0.00%     53.06% # Class of committed instruction
system.cpu.op_class_0::SimdReduceAlu                0      0.00%     53.06% # Class of committed instruction
system.cpu.op_class_0::SimdReduceCmp                0      0.00%     53.06% # Class of committed instruction
system.cpu.op_class_0::SimdFloatReduceAdd            0      0.00%     53.06% # Class of committed instruction
system.cpu.op_class_0::SimdFloatReduceCmp            0      0.00%     53.06% # Class of committed instruction
system.cpu.op_class_0::SimdAes                      0      0.00%     53.06% # Class of committed instruction
system.cpu.op_class_0::SimdAesMix                   0      0.00%     53.06% # Class of committed instruction
system.cpu.op_class_0::SimdSha1Hash                 0      0.00%     53.06% # Class of committed instruction
system.cpu.op_class_0::SimdSha1Hash2                0      0.00%     53.06% # Class of committed instruction
system.cpu.op_class_0::SimdSha256Hash               0      0.00%     53.06% # Class of committed instruction
system.cpu.op_class_0::SimdSha256Hash2              0      0.00%     53.06% # Class of committed instruction
system.cpu.op_class_0::SimdShaSigma2                0      0.00%     53.06% # Class of committed instruction
system.cpu.op_class_0::SimdShaSigma3                0      0.00%     53.06% # Class of committed instruction
system.cpu.op_class_0::SimdPredAlu                  0      0.00%     53.06% # Class of committed instruction
system.cpu.op_class_0::MemRead                2082677      1.13%     54.20% # Class of committed instruction
system.cpu.op_class_0::MemWrite              84380913     45.80%    100.00% # Class of committed instruction
system.cpu.op_class_0::FloatMemRead                 0      0.00%    100.00% # Class of committed instruction
system.cpu.op_class_0::FloatMemWrite                0      0.00%    100.00% # Class of committed instruction
system.cpu.op_class_0::IprAccess                    0      0.00%    100.00% # Class of committed instruction
system.cpu.op_class_0::InstPrefetch                 0      0.00%    100.00% # Class of committed instruction
system.cpu.op_class_0::total                184218810                       # Class of committed instruction
system.cpu.tickCycles                       217733716                       # Number of cycles that the object actually ticked
system.cpu.workload.numSyscalls                    19                       # Number of system calls
system.membus.snoop_filter.hit_multi_requests            0                       # Number of requests hitting in the snoop filter with multiple (>1) holders of the requested data.
system.membus.snoop_filter.hit_multi_snoops            0                       # Number of snoops hitting in the snoop filter with multiple (>1) holders of the requested data.
system.membus.snoop_filter.hit_single_requests      1299634                       # Number of requests hitting in the snoop filter with a single holder of the requested data.
system.membus.snoop_filter.hit_single_snoops            0                       # Number of snoops hitting in the snoop filter with a single holder of the requested data.
system.membus.snoop_filter.tot_requests       2615908                       # Total number of requests made to the snoop filter.
system.membus.snoop_filter.tot_snoops               0                       # Total number of snoops made to the snoop filter.
system.tol2bus.snoop_filter.hit_multi_requests           56                       # Number of requests hitting in the snoop filter with multiple (>1) holders of the requested data.
system.tol2bus.snoop_filter.hit_multi_snoops            0                       # Number of snoops hitting in the snoop filter with multiple (>1) holders of the requested data.
system.tol2bus.snoop_filter.hit_single_requests      1315563                       # Number of requests hitting in the snoop filter with a single holder of the requested data.
system.tol2bus.snoop_filter.hit_single_snoops          288                       # Number of snoops hitting in the snoop filter with a single holder of the requested data.
system.tol2bus.snoop_filter.tot_requests      2631910                       # Total number of requests made to the snoop filter.
system.tol2bus.snoop_filter.tot_snoops            288                       # Total number of snoops made to the snoop filter.
system.clk_domain.clock                          1000                       # Clock period in ticks
system.cpu.branchPred.lookups                10658358                       # Number of BP lookups
system.cpu.branchPred.condPredicted          10650063                       # Number of conditional branches predicted
system.cpu.branchPred.condIncorrect              1450                       # Number of conditional branches incorrect
system.cpu.branchPred.BTBLookups             10650246                       # Number of BTB lookups
system.cpu.branchPred.BTBHits                10648838                       # Number of BTB hits
system.cpu.branchPred.BTBHitPct             99.986780                       # BTB Hit Percentage
system.cpu.branchPred.RASUsed                    2734                       # Number of times the RAS was used to get a target.
system.cpu.branchPred.RASIncorrect                  1                       # Number of incorrect RAS predictions.
system.cpu.branchPred.indirectLookups             195                       # Number of indirect predictor lookups.
system.cpu.branchPred.indirectHits                 19                       # Number of indirect target hits.
system.cpu.branchPred.indirectMisses              176                       # Number of indirect misses.
system.cpu.branchPred.indirectMispredicted          101                       # Number of mispredicted indirect branches.
system.cpu.dcache.demand_hits::.cpu.data     83749436                       # number of demand (read+write) hits
system.cpu.dcache.demand_hits::total         83749436                       # number of demand (read+write) hits
system.cpu.dcache.overall_hits::.cpu.data     83749491                       # number of overall hits
system.cpu.dcache.overall_hits::total        83749491                       # number of overall hits
system.cpu.dcache.demand_misses::.cpu.data      2631210                       # number of demand (read+write) misses
system.cpu.dcache.demand_misses::total        2631210                       # number of demand (read+write) misses
system.cpu.dcache.overall_misses::.cpu.data      2631226                       # number of overall misses
system.cpu.dcache.overall_misses::total       2631226                       # number of overall misses
system.cpu.dcache.demand_miss_latency::.cpu.data 350375340000                       # number of demand (read+write) miss cycles
system.cpu.dcache.demand_miss_latency::total 350375340000                       # number of demand (read+write) miss cycles
system.cpu.dcache.overall_miss_latency::.cpu.data 350375340000                       # number of overall miss cycles
system.cpu.dcache.overall_miss_latency::total 350375340000                       # number of overall miss cycles
system.cpu.dcache.demand_accesses::.cpu.data     86380646                       # number of demand (read+write) accesses
system.cpu.dcache.demand_accesses::total     86380646                       # number of demand (read+write) accesses
system.cpu.dcache.overall_accesses::.cpu.data     86380717                       # number of overall (read+write) accesses
system.cpu.dcache.overall_accesses::total     86380717                       # number of overall (read+write) accesses
system.cpu.dcache.demand_miss_rate::.cpu.data     0.030461                       # miss rate for demand accesses
system.cpu.dcache.demand_miss_rate::total     0.030461                       # miss rate for demand accesses
system.cpu.dcache.overall_miss_rate::.cpu.data     0.030461                       # miss rate for overall accesses
system.cpu.dcache.overall_miss_rate::total     0.030461                       # miss rate for overall accesses
system.cpu.dcache.demand_avg_miss_latency::.cpu.data 133161.298414                       # average overall miss latency
system.cpu.dcache.demand_avg_miss_latency::total 133161.298414                       # average overall miss latency
system.cpu.dcache.overall_avg_miss_latency::.cpu.data 133160.488685                       # average overall miss latency
system.cpu.dcache.overall_avg_miss_latency::total 133160.488685                       # average overall miss latency
system.cpu.dcache.blocked_cycles::no_mshrs            0                       # number of cycles access was blocked
system.cpu.dcache.blocked_cycles::no_targets            0                       # number of cycles access was blocked
system.cpu.dcache.blocked::no_mshrs                 0                       # number of cycles access was blocked
system.cpu.dcache.blocked::no_targets               0                       # number of cycles access was blocked
system.cpu.dcache.avg_blocked_cycles::no_mshrs          nan                       # average number of cycles each access was blocked
system.cpu.dcache.avg_blocked_cycles::no_targets          nan                       # average number of cycles each access was blocked
system.cpu.dcache.writebacks::.writebacks      1315398                       # number of writebacks
system.cpu.dcache.writebacks::total           1315398                       # number of writebacks
system.cpu.dcache.demand_mshr_hits::.cpu.data      1315143                       # number of demand (read+write) MSHR hits
system.cpu.dcache.demand_mshr_hits::total      1315143                       # number of demand (read+write) MSHR hits
system.cpu.dcache.overall_mshr_hits::.cpu.data      1315143                       # number of overall MSHR hits
system.cpu.dcache.overall_mshr_hits::total      1315143                       # number of overall MSHR hits
system.cpu.dcache.demand_mshr_misses::.cpu.data      1316067                       # number of demand (read+write) MSHR misses
system.cpu.dcache.demand_mshr_misses::total      1316067                       # number of demand (read+write) MSHR misses
system.cpu.dcache.overall_mshr_misses::.cpu.data      1316075                       # number of overall MSHR misses
system.cpu.dcache.overall_mshr_misses::total      1316075                       # number of overall MSHR misses
system.cpu.dcache.demand_mshr_miss_latency::.cpu.data 168015122000                       # number of demand (read+write) MSHR miss cycles
system.cpu.dcache.demand_mshr_miss_latency::total 168015122000                       # number of demand (read+write) MSHR miss cycles
system.cpu.dcache.overall_mshr_miss_latency::.cpu.data 168016124000                       # number of overall MSHR miss cycles
system.cpu.dcache.overall_mshr_miss_latency::total 168016124000                       # number of overall MSHR miss cycles
system.cpu.dcache.demand_mshr_miss_rate::.cpu.data     0.015236                       # mshr miss rate for demand accesses
system.cpu.dcache.demand_mshr_miss_rate::total     0.015236                       # mshr miss rate for demand accesses
system.cpu.dcache.overall_mshr_miss_rate::.cpu.data     0.015236                       # mshr miss rate for overall accesses
system.cpu.dcache.overall_mshr_miss_rate::total     0.015236                       # mshr miss rate for overall accesses
system.cpu.dcache.demand_avg_mshr_miss_latency::.cpu.data 127664.565710                       # average overall mshr miss latency
system.cpu.dcache.demand_avg_mshr_miss_latency::total 127664.565710                       # average overall mshr miss latency
system.cpu.dcache.overall_avg_mshr_miss_latency::.cpu.data 127664.551032                       # average overall mshr miss latency
system.cpu.dcache.overall_avg_mshr_miss_latency::total 127664.551032                       # average overall mshr miss latency
system.cpu.dcache.replacements                1315563                       # number of replacements
system.cpu.dcache.ReadReq_hits::.cpu.data      2043843                       # number of ReadReq hits
system.cpu.dcache.ReadReq_hits::total         2043843                       # number of ReadReq hits
system.cpu.dcache.ReadReq_misses::.cpu.data          209                       # number of ReadReq misses
system.cpu.dcache.ReadReq_misses::total           209                       # number of ReadReq misses
system.cpu.dcache.ReadReq_miss_latency::.cpu.data     24483000                       # number of ReadReq miss cycles
system.cpu.dcache.ReadReq_miss_latency::total     24483000                       # number of ReadReq miss cycles
system.cpu.dcache.ReadReq_accesses::.cpu.data      2044052                       # number of ReadReq accesses(hits+misses)
system.cpu.dcache.ReadReq_accesses::total      2044052                       # number of ReadReq accesses(hits+misses)
system.cpu.dcache.ReadReq_miss_rate::.cpu.data     0.000102                       # miss rate for ReadReq accesses
system.cpu.dcache.ReadReq_miss_rate::total     0.000102                       # miss rate for ReadReq accesses
system.cpu.dcache.ReadReq_avg_miss_latency::.cpu.data 117143.540670                       # average ReadReq miss latency
system.cpu.dcache.ReadReq_avg_miss_latency::total 117143.540670                       # average ReadReq miss latency
system.cpu.dcache.ReadReq_mshr_hits::.cpu.data           23                       # number of ReadReq MSHR hits
system.cpu.dcache.ReadReq_mshr_hits::total           23                       # number of ReadReq MSHR hits
system.cpu.dcache.ReadReq_mshr_misses::.cpu.data          186                       # number of ReadReq MSHR misses
system.cpu.dcache.ReadReq_mshr_misses::total          186                       # number of ReadReq MSHR misses
system.cpu.dcache.ReadReq_mshr_miss_latency::.cpu.data     21651000                       # number of ReadReq MSHR miss cycles
system.cpu.dcache.ReadReq_mshr_miss_latency::total     21651000                       # number of ReadReq MSHR miss cycles
system.cpu.dcache.ReadReq_mshr_miss_rate::.cpu.data     0.000091                       # mshr miss rate for ReadReq accesses
system.cpu.dcache.ReadReq_mshr_miss_rate::total     0.000091                       # mshr miss rate for ReadReq accesses
system.cpu.dcache.ReadReq_avg_mshr_miss_latency::.cpu.data 116403.225806                       # average ReadReq mshr miss latency
system.cpu.dcache.ReadReq_avg_mshr_miss_latency::total 116403.225806                       # average ReadReq mshr miss latency
system.cpu.dcache.WriteReq_hits::.cpu.data     81705593                       # number of WriteReq hits
system.cpu.dcache.WriteReq_hits::total       81705593                       # number of WriteReq hits
system.cpu.dcache.WriteReq_misses::.cpu.data      2631001                       # number of WriteReq misses
system.cpu.dcache.WriteReq_misses::total      2631001                       # number of WriteReq misses
system.cpu.dcache.WriteReq_miss_latency::.cpu.data 350350857000                       # number of WriteReq miss cycles
system.cpu.dcache.WriteReq_miss_latency::total 350350857000                       # number of WriteReq miss cycles
system.cpu.dcache.WriteReq_accesses::.cpu.data     84336594                       # number of WriteReq accesses(hits+misses)
system.cpu.dcache.WriteReq_accesses::total     84336594                       # number of WriteReq accesses(hits+misses)
system.cpu.dcache.WriteReq_miss_rate::.cpu.data     0.031196                       # miss rate for WriteReq accesses
system.cpu.dcache.WriteReq_miss_rate::total     0.031196                       # miss rate for WriteReq accesses
system.cpu.dcache.WriteReq_avg_miss_latency::.cpu.data 133162.570824                       # average WriteReq miss latency
system.cpu.dcache.WriteReq_avg_miss_latency::total 133162.570824                       # average WriteReq miss latency
system.cpu.dcache.WriteReq_mshr_hits::.cpu.data      1315120                       # number of WriteReq MSHR hits
system.cpu.dcache.WriteReq_mshr_hits::total      1315120                       # number of WriteReq MSHR hits
system.cpu.dcache.WriteReq_mshr_misses::.cpu.data      1315881                       # number of WriteReq MSHR misses
system.cpu.dcache.WriteReq_mshr_misses::total      1315881                       # number of WriteReq MSHR misses
system.cpu.dcache.WriteReq_mshr_miss_latency::.cpu.data 167993471000                       # number of WriteReq MSHR miss cycles
system.cpu.dcache.WriteReq_mshr_miss_latency::total 167993471000                       # number of WriteReq MSHR miss cycles
system.cpu.dcache.WriteReq_mshr_miss_rate::.cpu.data     0.015603                       # mshr miss rate for WriteReq accesses
system.cpu.dcache.WriteReq_mshr_miss_rate::total     0.015603                       # mshr miss rate for WriteReq accesses
system.cpu.dcache.WriteReq_avg_mshr_miss_latency::.cpu.data 127666.157502                       # average WriteReq mshr miss latency
system.cpu.dcache.WriteReq_avg_mshr_miss_latency::total 127666.157502                       # average WriteReq mshr miss latency
system.cpu.dcache.SoftPFReq_hits::.cpu.data           55                       # number of SoftPFReq hits
system.cpu.dcache.SoftPFReq_hits::total            55                       # number of SoftPFReq hits
system.cpu.dcache.SoftPFReq_misses::.cpu.data           16                       # number of SoftPFReq misses
system.cpu.dcache.SoftPFReq_misses::total           16                       # number of SoftPFReq misses
system.cpu.dcache.SoftPFReq_accesses::.cpu.data           71                       # number of SoftPFReq accesses(hits+misses)
system.cpu.dcache.SoftPFReq_accesses::total           71                       # number of SoftPFReq accesses(hits+misses)
system.cpu.dcache.SoftPFReq_miss_rate::.cpu.data     0.225352                       # miss rate for SoftPFReq accesses
system.cpu.dcache.SoftPFReq_miss_rate::total     0.225352                       # miss rate for SoftPFReq accesses
system.cpu.dcache.SoftPFReq_mshr_misses::.cpu.data            8                       # number of SoftPFReq MSHR misses
system.cpu.dcache.SoftPFReq_mshr_misses::total            8                       # number of SoftPFReq MSHR misses
system.cpu.dcache.SoftPFReq_mshr_miss_latency::.cpu.data      1002000                       # number of SoftPFReq MSHR miss cycles
system.cpu.dcache.SoftPFReq_mshr_miss_latency::total      1002000                       # number of SoftPFReq MSHR miss cycles
system.cpu.dcache.SoftPFReq_mshr_miss_rate::.cpu.data     0.112676                       # mshr miss rate for SoftPFReq accesses
system.cpu.dcache.SoftPFReq_mshr_miss_rate::total     0.112676                       # mshr miss rate for SoftPFReq accesses
system.cpu.dcache.SoftPFReq_avg_mshr_miss_latency::.cpu.data       125250                       # average SoftPFReq mshr miss latency
system.cpu.dcache.SoftPFReq_avg_mshr_miss_latency::total       125250                       # average SoftPFReq mshr miss latency
system.cpu.dcache.LoadLockedReq_hits::.cpu.data           34                       # number of LoadLockedReq hits
system.cpu.dcache.LoadLockedReq_hits::total           34                       # number of LoadLockedReq hits
system.cpu.dcache.LoadLockedReq_accesses::.cpu.data           34                       # number of LoadLockedReq accesses(hits+misses)
system.cpu.dcache.LoadLockedReq_accesses::total           34                       # number of LoadLockedReq accesses(hits+misses)
system.cpu.dcache.StoreCondReq_hits::.cpu.data           34                       # number of StoreCondReq hits
system.cpu.dcache.StoreCondReq_hits::total           34                       # number of StoreCondReq hits
system.cpu.dcache.StoreCondReq_accesses::.cpu.data           34                       # number of StoreCondReq accesses(hits+misses)
system.cpu.dcache.StoreCondReq_accesses::total           34                       # number of StoreCondReq accesses(hits+misses)
system.cpu.dcache.power_state.pwrStateResidencyTicks::UNDEFINED 371468069000                       # Cumulative time (in ticks) in various power states
system.cpu.dcache.tags.tagsinuse           511.330409                       # Cycle average of tags in use
system.cpu.dcache.tags.total_refs            85065634                       # Total number of references to valid blocks.
system.cpu.dcache.tags.sampled_refs           1316075                       # Sample count of references to valid blocks.
system.cpu.dcache.tags.avg_refs             64.635856                       # Average number of references to valid blocks.
system.cpu.dcache.tags.warmup_cycle            258000                       # Cycle when the warmup percentage was hit.
system.cpu.dcache.tags.occ_blocks::.cpu.data   511.330409                       # Average occupied blocks per requestor
system.cpu.dcache.tags.occ_percent::.cpu.data     0.998692                       # Average percentage of cache occupancy
system.cpu.dcache.tags.occ_percent::total     0.998692                       # Average percentage of cache occupancy
system.cpu.dcache.tags.occ_task_id_blocks::1024          512                       # Occupied blocks per task id
system.cpu.dcache.tags.age_task_id_blocks_1024::0           35                       # Occupied blocks per task id
system.cpu.dcache.tags.age_task_id_blocks_1024::1          324                       # Occupied blocks per task id
system.cpu.dcache.tags.age_task_id_blocks_1024::2          153                       # Occupied blocks per task id
system.cpu.dcache.tags.occ_task_id_percent::1024            1                       # Percentage of cache occupancy per task id
system.cpu.dcache.tags.tag_accesses         692362355                       # Number of tag accesses
system.cpu.dcache.tags.data_accesses        692362355                       # Number of data accesses
system.cpu.dcache.tags.power_state.pwrStateResidencyTicks::UNDEFINED 371468069000                       # Cumulative time (in ticks) in various power states
system.cpu.dtb.instHits                             0                       # ITB inst hits
system.cpu.dtb.instMisses                           0                       # ITB inst misses
system.cpu.dtb.readHits                             0                       # DTB read hits
system.cpu.dtb.readMisses                           0                       # DTB read misses
system.cpu.dtb.writeHits                            0                       # DTB write hits
system.cpu.dtb.writeMisses                          0                       # DTB write misses
system.cpu.dtb.inserts                              0                       # Number of times an entry is inserted into the TLB
system.cpu.dtb.flushTlb                             0                       # Number of times complete TLB was flushed
system.cpu.dtb.flushTlbMva                          0                       # Number of times TLB was flushed by MVA
system.cpu.dtb.flushTlbMvaAsid                      0                       # Number of times TLB was flushed by MVA & ASID
system.cpu.dtb.flushTlbAsid                         0                       # Number of times TLB was flushed by ASID
system.cpu.dtb.flushedEntries                       0                       # Number of entries that have been flushed from TLB
system.cpu.dtb.alignFaults                          0                       # Number of TLB faults due to alignment restrictions
system.cpu.dtb.prefetchFaults                       0                       # Number of TLB faults due to prefetch
system.cpu.dtb.domainFaults                         0                       # Number of TLB faults due to domain restrictions
system.cpu.dtb.permsFaults                          0                       # Number of TLB faults due to permissions restrictions
system.cpu.dtb.readAccesses                         0                       # DTB read accesses
system.cpu.dtb.writeAccesses                        0                       # DTB write accesses
system.cpu.dtb.instAccesses                         0                       # ITB inst accesses
system.cpu.dtb.hits                                 0                       # Total TLB (inst and data) hits
system.cpu.dtb.misses                               0                       # Total TLB (inst and data) misses
system.cpu.dtb.accesses                             0                       # Total TLB (inst and data) accesses
system.cpu.dtb.stage2_mmu.stage2_tlb.instHits            0                       # ITB inst hits
system.cpu.dtb.stage2_mmu.stage2_tlb.instMisses            0                       # ITB inst misses
system.cpu.dtb.stage2_mmu.stage2_tlb.readHits            0                       # DTB read hits
system.cpu.dtb.stage2_mmu.stage2_tlb.readMisses            0                       # DTB read misses
system.cpu.dtb.stage2_mmu.stage2_tlb.writeHits            0                       # DTB write hits
system.cpu.dtb.stage2_mmu.stage2_tlb.writeMisses            0                       # DTB write misses
system.cpu.dtb.stage2_mmu.stage2_tlb.inserts            0                       # Number of times an entry is inserted into the TLB
system.cpu.dtb.stage2_mmu.stage2_tlb.flushTlb            0                       # Number of times complete TLB was flushed
system.cpu.dtb.stage2_mmu.stage2_tlb.flushTlbMva            0                       # Number of times TLB was flushed by MVA
system.cpu.dtb.stage2_mmu.stage2_tlb.flushTlbMvaAsid            0                       # Number of times TLB was flushed by MVA & ASID
system.cpu.dtb.stage2_mmu.stage2_tlb.flushTlbAsid            0                       # Number of times TLB was flushed by ASID
system.cpu.dtb.stage2_mmu.stage2_tlb.flushedEntries            0                       # Number of entries that have been flushed from TLB
system.cpu.dtb.stage2_mmu.stage2_tlb.alignFaults            0                       # Number of TLB faults due to alignment restrictions
system.cpu.dtb.stage2_mmu.stage2_tlb.prefetchFaults            0                       # Number of TLB faults due to prefetch
system.cpu.dtb.stage2_mmu.stage2_tlb.domainFaults            0                       # Number of TLB faults due to domain restrictions
system.cpu.dtb.stage2_mmu.stage2_tlb.permsFaults            0                       # Number of TLB faults due to permissions restrictions
system.cpu.dtb.stage2_mmu.stage2_tlb.readAccesses            0                       # DTB read accesses
system.cpu.dtb.stage2_mmu.stage2_tlb.writeAccesses            0                       # DTB write accesses
system.cpu.dtb.stage2_mmu.stage2_tlb.instAccesses            0                       # ITB inst accesses
system.cpu.dtb.stage2_mmu.stage2_tlb.hits            0                       # Total TLB (inst and data) hits
system.cpu.dtb.stage2_mmu.stage2_tlb.misses            0                       # Total TLB (inst and data) misses
system.cpu.dtb.stage2_mmu.stage2_tlb.accesses            0                       # Total TLB (inst and data) accesses
system.cpu.dtb.stage2_mmu.stage2_tlb.walker.walks            0                       # Table walker walks requested
system.cpu.dtb.stage2_mmu.stage2_tlb.walker.requestOrigin_Requested::Data            0                       # Table walker requests started/completed, data/inst
system.cpu.dtb.stage2_mmu.stage2_tlb.walker.requestOrigin_Requested::Inst            0                       # Table walker requests started/completed, data/inst
system.cpu.dtb.stage2_mmu.stage2_tlb.walker.requestOrigin_Requested::total            0                       # Table walker requests started/completed, data/inst
system.cpu.dtb.stage2_mmu.stage2_tlb.walker.requestOrigin_Completed::Data            0                       # Table walker requests started/completed, data/inst
system.cpu.dtb.stage2_mmu.stage2_tlb.walker.requestOrigin_Completed::Inst            0                       # Table walker requests started/completed, data/inst
system.cpu.dtb.stage2_mmu.stage2_tlb.walker.requestOrigin_Completed::total            0                       # Table walker requests started/completed, data/inst
system.cpu.dtb.stage2_mmu.stage2_tlb.walker.requestOrigin::total            0                       # Table walker requests started/completed, data/inst
system.cpu.dtb.stage2_mmu.stage2_tlb.walker.power_state.pwrStateResidencyTicks::UNDEFINED 371468069000                       # Cumulative time (in ticks) in various power states
system.cpu.dtb.walker.walks                         0                       # Table walker walks requested
system.cpu.dtb.walker.requestOrigin_Requested::Data            0                       # Table walker requests started/completed, data/inst
system.cpu.dtb.walker.requestOrigin_Requested::Inst            0                       # Table walker requests started/completed, data/inst
system.cpu.dtb.walker.requestOrigin_Requested::total            0                       # Table walker requests started/completed, data/inst
system.cpu.dtb.walker.requestOrigin_Completed::Data            0                       # Table walker requests started/completed, data/inst
system.cpu.dtb.walker.requestOrigin_Completed::Inst            0                       # Table walker requests started/completed, data/inst
system.cpu.dtb.walker.requestOrigin_Completed::total            0                       # Table walker requests started/completed, data/inst
system.cpu.dtb.walker.requestOrigin::total            0                       # Table walker requests started/completed, data/inst
system.cpu.dtb.walker.power_state.pwrStateResidencyTicks::UNDEFINED 371468069000                       # Cumulative time (in ticks) in various power states
system.cpu.fetch2.intInstructions            45071345                       # Number of integer instructions successfully decoded
system.cpu.fetch2.fpInstructions                    0                       # Number of floating point instructions successfully decoded
system.cpu.fetch2.vecInstructions                   0                       # Number of SIMD instructions successfully decoded
system.cpu.fetch2.loadInstructions            2086498                       # Number of memory load instructions successfully decoded
system.cpu.fetch2.storeInstructions            169208                       # Number of memory store instructions successfully decoded
system.cpu.fetch2.amoInstructions                   0                       # Number of memory atomic instructions successfully decoded
system.cpu.icache.demand_hits::.cpu.inst     32004726                       # number of demand (read+write) hits
system.cpu.icache.demand_hits::total         32004726                       # number of demand (read+write) hits
system.cpu.icache.overall_hits::.cpu.inst     32004726                       # number of overall hits
system.cpu.icache.overall_hits::total        32004726                       # number of overall hits
system.cpu.icache.demand_misses::.cpu.inst          272                       # number of demand (read+write) misses
system.cpu.icache.demand_misses::total            272                       # number of demand (read+write) misses
system.cpu.icache.overall_misses::.cpu.inst          272                       # number of overall misses
system.cpu.icache.overall_misses::total           272                       # number of overall misses
system.cpu.icache.demand_miss_latency::.cpu.inst     33337000                       # number of demand (read+write) miss cycles
system.cpu.icache.demand_miss_latency::total     33337000                       # number of demand (read+write) miss cycles
system.cpu.icache.overall_miss_latency::.cpu.inst     33337000                       # number of overall miss cycles
system.cpu.icache.overall_miss_latency::total     33337000                       # number of overall miss cycles
system.cpu.icache.demand_accesses::.cpu.inst     32004998                       # number of demand (read+write) accesses
system.cpu.icache.demand_accesses::total     32004998                       # number of demand (read+write) accesses
system.cpu.icache.overall_accesses::.cpu.inst     32004998                       # number of overall (read+write) accesses
system.cpu.icache.overall_accesses::total     32004998                       # number of overall (read+write) accesses
system.cpu.icache.demand_miss_rate::.cpu.inst     0.000008                       # miss rate for demand accesses
system.cpu.icache.demand_miss_rate::total     0.000008                       # miss rate for demand accesses
system.cpu.icache.overall_miss_rate::.cpu.inst     0.000008                       # miss rate for overall accesses
system.cpu.icache.overall_miss_rate::total     0.000008                       # miss rate for overall accesses
system.cpu.icache.demand_avg_miss_latency::.cpu.inst 122562.500000                       # average overall miss latency
system.cpu.icache.demand_avg_miss_latency::total 122562.500000                       # average overall miss latency
system.cpu.icache.overall_avg_miss_latency::.cpu.inst 122562.500000                       # average overall miss latency
system.cpu.icache.overall_avg_miss_latency::total 122562.500000                       # average overall miss latency
system.cpu.icache.blocked_cycles::no_mshrs            0                       # number of cycles access was blocked
system.cpu.icache.blocked_cycles::no_targets            0                       # number of cycles access was blocked
system.cpu.icache.blocked::no_mshrs                 0                       # number of cycles access was blocked
system.cpu.icache.blocked::no_targets               0                       # number of cycles access was blocked
system.cpu.icache.avg_blocked_cycles::no_mshrs          nan                       # average number of cycles each access was blocked
system.cpu.icache.avg_blocked_cycles::no_targets          nan                       # average number of cycles each access was blocked
system.cpu.icache.demand_mshr_misses::.cpu.inst          272                       # number of demand (read+write) MSHR misses
system.cpu.icache.demand_mshr_misses::total          272                       # number of demand (read+write) MSHR misses
system.cpu.icache.overall_mshr_misses::.cpu.inst          272                       # number of overall MSHR misses
system.cpu.icache.overall_mshr_misses::total          272                       # number of overall MSHR misses
system.cpu.icache.demand_mshr_miss_latency::.cpu.inst     32793000                       # number of demand (read+write) MSHR miss cycles
system.cpu.icache.demand_mshr_miss_latency::total     32793000                       # number of demand (read+write) MSHR miss cycles
system.cpu.icache.overall_mshr_miss_latency::.cpu.inst     32793000                       # number of overall MSHR miss cycles
system.cpu.icache.overall_mshr_miss_latency::total     32793000                       # number of overall MSHR miss cycles
system.cpu.icache.demand_mshr_miss_rate::.cpu.inst     0.000008                       # mshr miss rate for demand accesses
system.cpu.icache.demand_mshr_miss_rate::total     0.000008                       # mshr miss rate for demand accesses
system.cpu.icache.overall_mshr_miss_rate::.cpu.inst     0.000008                       # mshr miss rate for overall accesses
system.cpu.icache.overall_mshr_miss_rate::total     0.000008                       # mshr miss rate for overall accesses
system.cpu.icache.demand_avg_mshr_miss_latency::.cpu.inst 120562.500000                       # average overall mshr miss latency
system.cpu.icache.demand_avg_mshr_miss_latency::total 120562.500000                       # average overall mshr miss latency
system.cpu.icache.overall_avg_mshr_miss_latency::.cpu.inst 120562.500000                       # average overall mshr miss latency
system.cpu.icache.overall_avg_mshr_miss_latency::total 120562.500000                       # average overall mshr miss latency
system.cpu.icache.replacements                      0                       # number of replacements
system.cpu.icache.ReadReq_hits::.cpu.inst     32004726                       # number of ReadReq hits
system.cpu.icache.ReadReq_hits::total        32004726                       # number of ReadReq hits
system.cpu.icache.ReadReq_misses::.cpu.inst          272                       # number of ReadReq misses
system.cpu.icache.ReadReq_misses::total           272                       # number of ReadReq misses
system.cpu.icache.ReadReq_miss_latency::.cpu.inst     33337000                       # number of ReadReq miss cycles
system.cpu.icache.ReadReq_miss_latency::total     33337000                       # number of ReadReq miss cycles
system.cpu.icache.ReadReq_accesses::.cpu.inst     32004998                       # number of ReadReq accesses(hits+misses)
system.cpu.icache.ReadReq_accesses::total     32004998                       # number of ReadReq accesses(hits+misses)
system.cpu.icache.ReadReq_miss_rate::.cpu.inst     0.000008                       # miss rate for ReadReq accesses
system.cpu.icache.ReadReq_miss_rate::total     0.000008                       # miss rate for ReadReq accesses
system.cpu.icache.ReadReq_avg_miss_latency::.cpu.inst 122562.500000                       # average ReadReq miss latency
system.cpu.icache.ReadReq_avg_miss_latency::total 122562.500000                       # average ReadReq miss latency
system.cpu.icache.ReadReq_mshr_misses::.cpu.inst          272                       # number of ReadReq MSHR misses
system.cpu.icache.ReadReq_mshr_misses::total          272                       # number of ReadReq MSHR misses
system.cpu.icache.ReadReq_mshr_miss_latency::.cpu.inst     32793000                       # number of ReadReq MSHR miss cycles
system.cpu.icache.ReadReq_mshr_miss_latency::total     32793000                       # number of ReadReq MSHR miss cycles
system.cpu.icache.ReadReq_mshr_miss_rate::.cpu.inst     0.000008                       # mshr miss rate for ReadReq accesses
system.cpu.icache.ReadReq_mshr_miss_rate::total     0.000008                       # mshr miss rate for ReadReq accesses
system.cpu.icache.ReadReq_avg_mshr_miss_latency::.cpu.inst 120562.500000                       # average ReadReq mshr miss latency
system.cpu.icache.ReadReq_avg_mshr_miss_latency::total 120562.500000                       # average ReadReq mshr miss latency
system.cpu.icache.power_state.pwrStateResidencyTicks::UNDEFINED 371468069000                       # Cumulative time (in ticks) in various power states
system.cpu.icache.tags.tagsinuse           234.228124                       # Cycle average of tags in use
system.cpu.icache.tags.total_refs            32004998                       # Total number of references to valid blocks.
system.cpu.icache.tags.sampled_refs               272                       # Sample count of references to valid blocks.
system.cpu.icache.tags.avg_refs          117665.433824                       # Average number of references to valid blocks.
system.cpu.icache.tags.warmup_cycle            123000                       # Cycle when the warmup percentage was hit.
system.cpu.icache.tags.occ_blocks::.cpu.inst   234.228124                       # Average occupied blocks per requestor
system.cpu.icache.tags.occ_percent::.cpu.inst     0.457477                       # Average percentage of cache occupancy
system.cpu.icache.tags.occ_percent::total     0.457477                       # Average percentage of cache occupancy
system.cpu.icache.tags.occ_task_id_blocks::1024          272                       # Occupied blocks per task id
system.cpu.icache.tags.age_task_id_blocks_1024::4          272                       # Occupied blocks per task id
system.cpu.icache.tags.occ_task_id_percent::1024     0.531250                       # Percentage of cache occupancy per task id
system.cpu.icache.tags.tag_accesses         256040256                       # Number of tag accesses
system.cpu.icache.tags.data_accesses        256040256                       # Number of data accesses
system.cpu.icache.tags.power_state.pwrStateResidencyTicks::UNDEFINED 371468069000                       # Cumulative time (in ticks) in various power states
system.cpu.itb.instHits                             0                       # ITB inst hits
system.cpu.itb.instMisses                           0                       # ITB inst misses
system.cpu.itb.readHits                             0                       # DTB read hits
system.cpu.itb.readMisses                           0                       # DTB read misses
system.cpu.itb.writeHits                            0                       # DTB write hits
system.cpu.itb.writeMisses                          0                       # DTB write misses
system.cpu.itb.inserts                              0                       # Number of times an entry is inserted into the TLB
system.cpu.itb.flushTlb                             0                       # Number of times complete TLB was flushed
system.cpu.itb.flushTlbMva                          0                       # Number of times TLB was flushed by MVA
system.cpu.itb.flushTlbMvaAsid                      0                       # Number of times TLB was flushed by MVA & ASID
system.cpu.itb.flushTlbAsid                         0                       # Number of times TLB was flushed by ASID
system.cpu.itb.flushedEntries                       0                       # Number of entries that have been flushed from TLB
system.cpu.itb.alignFaults                          0                       # Number of TLB faults due to alignment restrictions
system.cpu.itb.prefetchFaults                       0                       # Number of TLB faults due to prefetch
system.cpu.itb.domainFaults                         0                       # Number of TLB faults due to domain restrictions
system.cpu.itb.permsFaults                          0                       # Number of TLB faults due to permissions restrictions
system.cpu.itb.readAccesses                         0                       # DTB read accesses
system.cpu.itb.writeAccesses                        0                       # DTB write accesses
system.cpu.itb.instAccesses                         0                       # ITB inst accesses
system.cpu.itb.hits                                 0                       # Total TLB (inst and data) hits
system.cpu.itb.misses                               0                       # Total TLB (inst and data) misses
system.cpu.itb.accesses                             0                       # Total TLB (inst and data) accesses
system.cpu.itb.stage2_mmu.stage2_tlb.instHits            0                       # ITB inst hits
system.cpu.itb.stage2_mmu.stage2_tlb.instMisses            0                       # ITB inst misses
system.cpu.itb.stage2_mmu.stage2_tlb.readHits            0                       # DTB read hits
system.cpu.itb.stage2_mmu.stage2_tlb.readMisses            0                       # DTB read misses
system.cpu.itb.stage2_mmu.stage2_tlb.writeHits            0                       # DTB write hits
system.cpu.itb.stage2_mmu.stage2_tlb.writeMisses            0                       # DTB write misses
system.cpu.itb.stage2_mmu.stage2_tlb.inserts            0                       # Number of times an entry is inserted into the TLB
system.cpu.itb.stage2_mmu.stage2_tlb.flushTlb            0                       # Number of times complete TLB was flushed
system.cpu.itb.stage2_mmu.stage2_tlb.flushTlbMva            0                       # Number of times TLB was flushed by MVA
system.cpu.itb.stage2_mmu.stage2_tlb.flushTlbMvaAsid            0                       # Number of times TLB was flushed by MVA & ASID
system.cpu.itb.stage2_mmu.stage2_tlb.flushTlbAsid            0                       # Number of times TLB was flushed by ASID
system.cpu.itb.stage2_mmu.stage2_tlb.flushedEntries            0                       # Number of entries that have been flushed from TLB
system.cpu.itb.stage2_mmu.stage2_tlb.alignFaults            0                       # Number of TLB faults due to alignment restrictions
system.cpu.itb.stage2_mmu.stage2_tlb.prefetchFaults            0                       # Number of TLB faults due to prefetch
system.cpu.itb.stage2_mmu.stage2_tlb.domainFaults            0                       # Number of TLB faults due to domain restrictions
system.cpu.itb.stage2_mmu.stage2_tlb.permsFaults            0                       # Number of TLB faults due to permissions restrictions
system.cpu.itb.stage2_mmu.stage2_tlb.readAccesses            0                       # DTB read accesses
system.cpu.itb.stage2_mmu.stage2_tlb.writeAccesses            0                       # DTB write accesses
system.cpu.itb.stage2_mmu.stage2_tlb.instAccesses            0                       # ITB inst accesses
system.cpu.itb.stage2_mmu.stage2_tlb.hits            0                       # Total TLB (inst and data) hits
system.cpu.itb.stage2_mmu.stage2_tlb.misses            0                       # Total TLB (inst and data) misses
system.cpu.itb.stage2_mmu.stage2_tlb.accesses            0                       # Total TLB (inst and data) accesses
system.cpu.itb.stage2_mmu.stage2_tlb.walker.walks            0                       # Table walker walks requested
system.cpu.itb.stage2_mmu.stage2_tlb.walker.requestOrigin_Requested::Data            0                       # Table walker requests started/completed, data/inst
system.cpu.itb.stage2_mmu.stage2_tlb.walker.requestOrigin_Requested::Inst            0                       # Table walker requests started/completed, data/inst
system.cpu.itb.stage2_mmu.stage2_tlb.walker.requestOrigin_Requested::total            0                       # Table walker requests started/completed, data/inst
system.cpu.itb.stage2_mmu.stage2_tlb.walker.requestOrigin_Completed::Data            0                       # Table walker requests started/completed, data/inst
system.cpu.itb.stage2_mmu.stage2_tlb.walker.requestOrigin_Completed::Inst            0                       # Table walker requests started/completed, data/inst
system.cpu.itb.stage2_mmu.stage2_tlb.walker.requestOrigin_Completed::total            0                       # Table walker requests started/completed, data/inst
system.cpu.itb.stage2_mmu.stage2_tlb.walker.requestOrigin::total            0                       # Table walker requests started/completed, data/inst
system.cpu.itb.stage2_mmu.stage2_tlb.walker.power_state.pwrStateResidencyTicks::UNDEFINED 371468069000                       # Cumulative time (in ticks) in various power states
system.cpu.itb.walker.walks                         0                       # Table walker walks requested
system.cpu.itb.walker.requestOrigin_Requested::Data            0                       # Table walker requests started/completed, data/inst
system.cpu.itb.walker.requestOrigin_Requested::Inst            0                       # Table walker requests started/completed, data/inst
system.cpu.itb.walker.requestOrigin_Requested::total            0                       # Table walker requests started/completed, data/inst
system.cpu.itb.walker.requestOrigin_Completed::Data            0                       # Table walker requests started/completed, data/inst
system.cpu.itb.walker.requestOrigin_Completed::Inst            0                       # Table walker requests started/completed, data/inst
system.cpu.itb.walker.requestOrigin_Completed::total            0                       # Table walker requests started/completed, data/inst
system.cpu.itb.walker.requestOrigin::total            0                       # Table walker requests started/completed, data/inst
system.cpu.itb.walker.power_state.pwrStateResidencyTicks::UNDEFINED 371468069000                       # Cumulative time (in ticks) in various power states
system.cpu.power_state.pwrStateResidencyTicks::ON 371468069000                       # Cumulative time (in ticks) in various power states
system.cpu.thread17522.numInsts             100000000                       # Number of Instructions committed
system.cpu.thread17522.numOps               184218810                       # Number of Ops committed
system.cpu.thread17522.numMemRefs                   0                       # Number of Memory References
system.cpu_clk_domain.clock                      1000                       # Clock period in ticks
system.cpu_voltage_domain.voltage                   1                       # Voltage in Volts
system.l2.demand_hits::.cpu.inst                    8                       # number of demand (read+write) hits
system.l2.demand_hits::.cpu.data                   40                       # number of demand (read+write) hits
system.l2.demand_hits::total                       48                       # number of demand (read+write) hits
system.l2.overall_hits::.cpu.inst                   8                       # number of overall hits
system.l2.overall_hits::.cpu.data                  40                       # number of overall hits
system.l2.overall_hits::total                      48                       # number of overall hits
system.l2.demand_misses::.cpu.inst                264                       # number of demand (read+write) misses
system.l2.demand_misses::.cpu.data            1316035                       # number of demand (read+write) misses
system.l2.demand_misses::total                1316299                       # number of demand (read+write) misses
system.l2.overall_misses::.cpu.inst               264                       # number of overall misses
system.l2.overall_misses::.cpu.data           1316035                       # number of overall misses
system.l2.overall_misses::total               1316299                       # number of overall misses
system.l2.demand_miss_latency::.cpu.inst     31747000                       # number of demand (read+write) miss cycles
system.l2.demand_miss_latency::.cpu.data 164066771000                       # number of demand (read+write) miss cycles
system.l2.demand_miss_latency::total     164098518000                       # number of demand (read+write) miss cycles
system.l2.overall_miss_latency::.cpu.inst     31747000                       # number of overall miss cycles
system.l2.overall_miss_latency::.cpu.data 164066771000                       # number of overall miss cycles
system.l2.overall_miss_latency::total    164098518000                       # number of overall miss cycles
system.l2.demand_accesses::.cpu.inst              272                       # number of demand (read+write) accesses
system.l2.demand_accesses::.cpu.data          1316075                       # number of demand (read+write) accesses
system.l2.demand_accesses::total              1316347                       # number of demand (read+write) accesses
system.l2.overall_accesses::.cpu.inst             272                       # number of overall (read+write) accesses
system.l2.overall_accesses::.cpu.data         1316075                       # number of overall (read+write) accesses
system.l2.overall_accesses::total             1316347                       # number of overall (read+write) accesses
system.l2.demand_miss_rate::.cpu.inst        0.970588                       # miss rate for demand accesses
system.l2.demand_miss_rate::.cpu.data        0.999970                       # miss rate for demand accesses
system.l2.demand_miss_rate::total            0.999964                       # miss rate for demand accesses
system.l2.overall_miss_rate::.cpu.inst       0.970588                       # miss rate for overall accesses
system.l2.overall_miss_rate::.cpu.data       0.999970                       # miss rate for overall accesses
system.l2.overall_miss_rate::total           0.999964                       # miss rate for overall accesses
system.l2.demand_avg_miss_latency::.cpu.inst 120253.787879                       # average overall miss latency
system.l2.demand_avg_miss_latency::.cpu.data 124667.483008                       # average overall miss latency
system.l2.demand_avg_miss_latency::total 124666.597787                       # average overall miss latency
system.l2.overall_avg_miss_latency::.cpu.inst 120253.787879                       # average overall miss latency
system.l2.overall_avg_miss_latency::.cpu.data 124667.483008                       # average overall miss latency
system.l2.overall_avg_miss_latency::total 124666.597787                       # average overall miss latency
system.l2.blocked_cycles::no_mshrs                  0                       # number of cycles access was blocked
system.l2.blocked_cycles::no_targets                0                       # number of cycles access was blocked
system.l2.blocked::no_mshrs                         0                       # number of cycles access was blocked
system.l2.blocked::no_targets                       0                       # number of cycles access was blocked
system.l2.avg_blocked_cycles::no_mshrs            nan                       # average number of cycles each access was blocked
system.l2.avg_blocked_cycles::no_targets          nan                       # average number of cycles each access was blocked
system.l2.writebacks::.writebacks             1299511                       # number of writebacks
system.l2.writebacks::total                   1299511                       # number of writebacks
system.l2.demand_mshr_hits::.cpu.inst               1                       # number of demand (read+write) MSHR hits
system.l2.demand_mshr_hits::.cpu.data               8                       # number of demand (read+write) MSHR hits
system.l2.demand_mshr_hits::total                   9                       # number of demand (read+write) MSHR hits
system.l2.overall_mshr_hits::.cpu.inst              1                       # number of overall MSHR hits
system.l2.overall_mshr_hits::.cpu.data              8                       # number of overall MSHR hits
system.l2.overall_mshr_hits::total                  9                       # number of overall MSHR hits
system.l2.demand_mshr_misses::.cpu.inst           263                       # number of demand (read+write) MSHR misses
system.l2.demand_mshr_misses::.cpu.data       1316027                       # number of demand (read+write) MSHR misses
system.l2.demand_mshr_misses::total           1316290                       # number of demand (read+write) MSHR misses
system.l2.overall_mshr_misses::.cpu.inst          263                       # number of overall MSHR misses
system.l2.overall_mshr_misses::.cpu.data      1316027                       # number of overall MSHR misses
system.l2.overall_mshr_misses::total          1316290                       # number of overall MSHR misses
system.l2.demand_mshr_miss_latency::.cpu.inst     26383000                       # number of demand (read+write) MSHR miss cycles
system.l2.demand_mshr_miss_latency::.cpu.data 137745436000                       # number of demand (read+write) MSHR miss cycles
system.l2.demand_mshr_miss_latency::total 137771819000                       # number of demand (read+write) MSHR miss cycles
system.l2.overall_mshr_miss_latency::.cpu.inst     26383000                       # number of overall MSHR miss cycles
system.l2.overall_mshr_miss_latency::.cpu.data 137745436000                       # number of overall MSHR miss cycles
system.l2.overall_mshr_miss_latency::total 137771819000                       # number of overall MSHR miss cycles
system.l2.demand_mshr_miss_rate::.cpu.inst     0.966912                       # mshr miss rate for demand accesses
system.l2.demand_mshr_miss_rate::.cpu.data     0.999964                       # mshr miss rate for demand accesses
system.l2.demand_mshr_miss_rate::total       0.999957                       # mshr miss rate for demand accesses
system.l2.overall_mshr_miss_rate::.cpu.inst     0.966912                       # mshr miss rate for overall accesses
system.l2.overall_mshr_miss_rate::.cpu.data     0.999964                       # mshr miss rate for overall accesses
system.l2.overall_mshr_miss_rate::total      0.999957                       # mshr miss rate for overall accesses
system.l2.demand_avg_mshr_miss_latency::.cpu.inst 100315.589354                       # average overall mshr miss latency
system.l2.demand_avg_mshr_miss_latency::.cpu.data 104667.636758                       # average overall mshr miss latency
system.l2.demand_avg_mshr_miss_latency::total 104666.767202                       # average overall mshr miss latency
system.l2.overall_avg_mshr_miss_latency::.cpu.inst 100315.589354                       # average overall mshr miss latency
system.l2.overall_avg_mshr_miss_latency::.cpu.data 104667.636758                       # average overall mshr miss latency
system.l2.overall_avg_mshr_miss_latency::total 104666.767202                       # average overall mshr miss latency
system.l2.replacements                        1299906                       # number of replacements
system.l2.WritebackDirty_hits::.writebacks      1315398                       # number of WritebackDirty hits
system.l2.WritebackDirty_hits::total          1315398                       # number of WritebackDirty hits
system.l2.WritebackDirty_accesses::.writebacks      1315398                       # number of WritebackDirty accesses(hits+misses)
system.l2.WritebackDirty_accesses::total      1315398                       # number of WritebackDirty accesses(hits+misses)
system.l2.ReadExReq_hits::.cpu.data                 6                       # number of ReadExReq hits
system.l2.ReadExReq_hits::total                     6                       # number of ReadExReq hits
system.l2.ReadExReq_misses::.cpu.data         1315875                       # number of ReadExReq misses
system.l2.ReadExReq_misses::total             1315875                       # number of ReadExReq misses
system.l2.ReadExReq_miss_latency::.cpu.data 164045679000                       # number of ReadExReq miss cycles
system.l2.ReadExReq_miss_latency::total  164045679000                       # number of ReadExReq miss cycles
system.l2.ReadExReq_accesses::.cpu.data       1315881                       # number of ReadExReq accesses(hits+misses)
system.l2.ReadExReq_accesses::total           1315881                       # number of ReadExReq accesses(hits+misses)
system.l2.ReadExReq_miss_rate::.cpu.data     0.999995                       # miss rate for ReadExReq accesses
system.l2.ReadExReq_miss_rate::total         0.999995                       # miss rate for ReadExReq accesses
system.l2.ReadExReq_avg_miss_latency::.cpu.data 124666.612710                       # average ReadExReq miss latency
system.l2.ReadExReq_avg_miss_latency::total 124666.612710                       # average ReadExReq miss latency
system.l2.ReadExReq_mshr_misses::.cpu.data      1315875                       # number of ReadExReq MSHR misses
system.l2.ReadExReq_mshr_misses::total        1315875                       # number of ReadExReq MSHR misses
system.l2.ReadExReq_mshr_miss_latency::.cpu.data 137728179000                       # number of ReadExReq MSHR miss cycles
system.l2.ReadExReq_mshr_miss_latency::total 137728179000                       # number of ReadExReq MSHR miss cycles
system.l2.ReadExReq_mshr_miss_rate::.cpu.data     0.999995                       # mshr miss rate for ReadExReq accesses
system.l2.ReadExReq_mshr_miss_rate::total     0.999995                       # mshr miss rate for ReadExReq accesses
system.l2.ReadExReq_avg_mshr_miss_latency::.cpu.data 104666.612710                       # average ReadExReq mshr miss latency
system.l2.ReadExReq_avg_mshr_miss_latency::total 104666.612710                       # average ReadExReq mshr miss latency
system.l2.ReadCleanReq_hits::.cpu.inst              8                       # number of ReadCleanReq hits
system.l2.ReadCleanReq_hits::total                  8                       # number of ReadCleanReq hits
system.l2.ReadCleanReq_misses::.cpu.inst          264                       # number of ReadCleanReq misses
system.l2.ReadCleanReq_misses::total              264                       # number of ReadCleanReq misses
system.l2.ReadCleanReq_miss_latency::.cpu.inst     31747000                       # number of ReadCleanReq miss cycles
system.l2.ReadCleanReq_miss_latency::total     31747000                       # number of ReadCleanReq miss cycles
system.l2.ReadCleanReq_accesses::.cpu.inst          272                       # number of ReadCleanReq accesses(hits+misses)
system.l2.ReadCleanReq_accesses::total            272                       # number of ReadCleanReq accesses(hits+misses)
system.l2.ReadCleanReq_miss_rate::.cpu.inst     0.970588                       # miss rate for ReadCleanReq accesses
system.l2.ReadCleanReq_miss_rate::total      0.970588                       # miss rate for ReadCleanReq accesses
system.l2.ReadCleanReq_avg_miss_latency::.cpu.inst 120253.787879                       # average ReadCleanReq miss latency
system.l2.ReadCleanReq_avg_miss_latency::total 120253.787879                       # average ReadCleanReq miss latency
system.l2.ReadCleanReq_mshr_hits::.cpu.inst            1                       # number of ReadCleanReq MSHR hits
system.l2.ReadCleanReq_mshr_hits::total             1                       # number of ReadCleanReq MSHR hits
system.l2.ReadCleanReq_mshr_misses::.cpu.inst          263                       # number of ReadCleanReq MSHR misses
system.l2.ReadCleanReq_mshr_misses::total          263                       # number of ReadCleanReq MSHR misses
system.l2.ReadCleanReq_mshr_miss_latency::.cpu.inst     26383000                       # number of ReadCleanReq MSHR miss cycles
system.l2.ReadCleanReq_mshr_miss_latency::total     26383000                       # number of ReadCleanReq MSHR miss cycles
system.l2.ReadCleanReq_mshr_miss_rate::.cpu.inst     0.966912                       # mshr miss rate for ReadCleanReq accesses
system.l2.ReadCleanReq_mshr_miss_rate::total     0.966912                       # mshr miss rate for ReadCleanReq accesses
system.l2.ReadCleanReq_avg_mshr_miss_latency::.cpu.inst 100315.589354                       # average ReadCleanReq mshr miss latency
system.l2.ReadCleanReq_avg_mshr_miss_latency::total 100315.589354                       # average ReadCleanReq mshr miss latency
system.l2.ReadSharedReq_hits::.cpu.data            34                       # number of ReadSharedReq hits
system.l2.ReadSharedReq_hits::total                34                       # number of ReadSharedReq hits
system.l2.ReadSharedReq_misses::.cpu.data          160                       # number of ReadSharedReq misses
system.l2.ReadSharedReq_misses::total             160                       # number of ReadSharedReq misses
system.l2.ReadSharedReq_miss_latency::.cpu.data     21092000                       # number of ReadSharedReq miss cycles
system.l2.ReadSharedReq_miss_latency::total     21092000                       # number of ReadSharedReq miss cycles
system.l2.ReadSharedReq_accesses::.cpu.data          194                       # number of ReadSharedReq accesses(hits+misses)
system.l2.ReadSharedReq_accesses::total           194                       # number of ReadSharedReq accesses(hits+misses)
system.l2.ReadSharedReq_miss_rate::.cpu.data     0.824742                       # miss rate for ReadSharedReq accesses
system.l2.ReadSharedReq_miss_rate::total     0.824742                       # miss rate for ReadSharedReq accesses
system.l2.ReadSharedReq_avg_miss_latency::.cpu.data       131825                       # average ReadSharedReq miss latency
system.l2.ReadSharedReq_avg_miss_latency::total       131825                       # average ReadSharedReq miss latency
system.l2.ReadSharedReq_mshr_hits::.cpu.data            8                       # number of ReadSharedReq MSHR hits
system.l2.ReadSharedReq_mshr_hits::total            8                       # number of ReadSharedReq MSHR hits
system.l2.ReadSharedReq_mshr_misses::.cpu.data          152                       # number of ReadSharedReq MSHR misses
system.l2.ReadSharedReq_mshr_misses::total          152                       # number of ReadSharedReq MSHR misses
system.l2.ReadSharedReq_mshr_miss_latency::.cpu.data     17257000                       # number of ReadSharedReq MSHR miss cycles
system.l2.ReadSharedReq_mshr_miss_latency::total     17257000                       # number of ReadSharedReq MSHR miss cycles
system.l2.ReadSharedReq_mshr_miss_rate::.cpu.data     0.783505                       # mshr miss rate for ReadSharedReq accesses
system.l2.ReadSharedReq_mshr_miss_rate::total     0.783505                       # mshr miss rate for ReadSharedReq accesses
system.l2.ReadSharedReq_avg_mshr_miss_latency::.cpu.data 113532.894737                       # average ReadSharedReq mshr miss latency
system.l2.ReadSharedReq_avg_mshr_miss_latency::total 113532.894737                       # average ReadSharedReq mshr miss latency
system.l2.power_state.pwrStateResidencyTicks::UNDEFINED 371468069000                       # Cumulative time (in ticks) in various power states
system.l2.tags.tagsinuse                 16051.097370                       # Cycle average of tags in use
system.l2.tags.total_refs                     2631845                       # Total number of references to valid blocks.
system.l2.tags.sampled_refs                   1316290                       # Sample count of references to valid blocks.
system.l2.tags.avg_refs                      1.999442                       # Average number of references to valid blocks.
system.l2.tags.warmup_cycle                    102000                       # Cycle when the warmup percentage was hit.
system.l2.tags.occ_blocks::.cpu.inst         5.508042                       # Average occupied blocks per requestor
system.l2.tags.occ_blocks::.cpu.data     16045.589328                       # Average occupied blocks per requestor
system.l2.tags.occ_percent::.cpu.inst        0.000336                       # Average percentage of cache occupancy
system.l2.tags.occ_percent::.cpu.data        0.979345                       # Average percentage of cache occupancy
system.l2.tags.occ_percent::total            0.979681                       # Average percentage of cache occupancy
system.l2.tags.occ_task_id_blocks::1024         16384                       # Occupied blocks per task id
system.l2.tags.age_task_id_blocks_1024::0           35                       # Occupied blocks per task id
system.l2.tags.age_task_id_blocks_1024::1          324                       # Occupied blocks per task id
system.l2.tags.age_task_id_blocks_1024::2         3236                       # Occupied blocks per task id
system.l2.tags.age_task_id_blocks_1024::3        12789                       # Occupied blocks per task id
system.l2.tags.occ_task_id_percent::1024            1                       # Percentage of cache occupancy per task id
system.l2.tags.tag_accesses                  22371122                       # Number of tag accesses
system.l2.tags.data_accesses                 22371122                       # Number of data accesses
system.l2.tags.power_state.pwrStateResidencyTicks::UNDEFINED 371468069000                       # Cumulative time (in ticks) in various power states
system.mem_ctrls.avgPriority_.writebacks::samples   5198044.00                       # Average QoS priority value for accepted requests
system.mem_ctrls.avgPriority_.cpu.inst::samples      1052.00                       # Average QoS priority value for accepted requests
system.mem_ctrls.avgPriority_.cpu.data::samples   5264108.00                       # Average QoS priority value for accepted requests
system.mem_ctrls.priorityMinLatency      0.000000018750                       # per QoS priority minimum request to response latency (s)
system.mem_ctrls.priorityMaxLatency      0.000911638750                       # per QoS priority maximum request to response latency (s)
system.mem_ctrls.numReadWriteTurnArounds       261762                       # Number of turnarounds from READ to WRITE
system.mem_ctrls.numWriteReadTurnArounds       261762                       # Number of turnarounds from WRITE to READ
system.mem_ctrls.numStayReadState             7947436                       # Number of times bus staying in READ state
system.mem_ctrls.numStayWriteState            4964412                       # Number of times bus staying in WRITE state
system.mem_ctrls.readReqs                     1316290                       # Number of read requests accepted
system.mem_ctrls.writeReqs                    1299511                       # Number of write requests accepted
system.mem_ctrls.readBursts                   5265160                       # Number of controller read bursts, including those serviced by the write queue
system.mem_ctrls.writeBursts                  5198044                       # Number of controller write bursts, including those merged in the write queue
system.mem_ctrls.servicedByWrQ                      0                       # Number of controller read bursts serviced by the write queue
system.mem_ctrls.mergedWrBursts                     0                       # Number of controller write bursts merged with an existing one
system.mem_ctrls.neitherReadNorWriteReqs            0                       # Number of requests that are neither read nor write
system.mem_ctrls.avgRdQLen                       4.01                       # Average read queue length when enqueuing
system.mem_ctrls.avgWrQLen                      26.70                       # Average write queue length when enqueuing
system.mem_ctrls.numRdRetry                         0                       # Number of times read queue was full causing retry
system.mem_ctrls.numWrRetry                         0                       # Number of times write queue was full causing retry
system.mem_ctrls.readPktSize::0                     0                       # Read request sizes (log2)
system.mem_ctrls.readPktSize::1                     0                       # Read request sizes (log2)
system.mem_ctrls.readPktSize::2                     0                       # Read request sizes (log2)
system.mem_ctrls.readPktSize::3                     0                       # Read request sizes (log2)
system.mem_ctrls.readPktSize::4                     0                       # Read request sizes (log2)
system.mem_ctrls.readPktSize::5                     0                       # Read request sizes (log2)
system.mem_ctrls.readPktSize::6               5265160                       # Read request sizes (log2)
system.mem_ctrls.readPktSize::7                     0                       # Read request sizes (log2)
system.mem_ctrls.readPktSize::8                     0                       # Read request sizes (log2)
system.mem_ctrls.writePktSize::0                    0                       # Write request sizes (log2)
system.mem_ctrls.writePktSize::1                    0                       # Write request sizes (log2)
system.mem_ctrls.writePktSize::2                    0                       # Write request sizes (log2)
system.mem_ctrls.writePktSize::3                    0                       # Write request sizes (log2)
system.mem_ctrls.writePktSize::4                    0                       # Write request sizes (log2)
system.mem_ctrls.writePktSize::5                    0                       # Write request sizes (log2)
system.mem_ctrls.writePktSize::6              5198044                       # Write request sizes (log2)
system.mem_ctrls.writePktSize::7                    0                       # Write request sizes (log2)
system.mem_ctrls.writePktSize::8                    0                       # Write request sizes (log2)
system.mem_ctrls.rdQLenPdf::0                 1316056                       # What read queue length does an incoming req see
system.mem_ctrls.rdQLenPdf::1                 1316056                       # What read queue length does an incoming req see
system.mem_ctrls.rdQLenPdf::2                 1316154                       # What read queue length does an incoming req see
system.mem_ctrls.rdQLenPdf::3                 1316158                       # What read queue length does an incoming req see
system.mem_ctrls.rdQLenPdf::4                     230                       # What read queue length does an incoming req see
system.mem_ctrls.rdQLenPdf::5                     230                       # What read queue length does an incoming req see
system.mem_ctrls.rdQLenPdf::6                     132                       # What read queue length does an incoming req see
system.mem_ctrls.rdQLenPdf::7                     129                       # What read queue length does an incoming req see
system.mem_ctrls.rdQLenPdf::8                       4                       # What read queue length does an incoming req see
system.mem_ctrls.rdQLenPdf::9                       4                       # What read queue length does an incoming req see
system.mem_ctrls.rdQLenPdf::10                      4                       # What read queue length does an incoming req see
system.mem_ctrls.rdQLenPdf::11                      3                       # What read queue length does an incoming req see
system.mem_ctrls.rdQLenPdf::12                      0                       # What read queue length does an incoming req see
system.mem_ctrls.rdQLenPdf::13                      0                       # What read queue length does an incoming req see
[...]
system.mem_ctrls.dram.bw_inst_read::total       181248                       # Instruction read bandwidth from this memory (bytes/s)
system.mem_ctrls.dram.bw_write::.writebacks    895567732                       # Write bandwidth from this memory (bytes/s)
system.mem_ctrls.dram.bw_write::total       895567732                       # Write bandwidth from this memory (bytes/s)
system.mem_ctrls.dram.bw_total::.writebacks    895567732                       # Total bandwidth to/from this memory (bytes/s)
system.mem_ctrls.dram.bw_total::.cpu.inst       181248                       # Total bandwidth to/from this memory (bytes/s)
system.mem_ctrls.dram.bw_total::.cpu.data    906949857                       # Total bandwidth to/from this memory (bytes/s)
system.mem_ctrls.dram.bw_total::total      1802698837                       # Total bandwidth to/from this memory (bytes/s)
system.mem_ctrls.dram.readBursts              5265160                       # Number of DRAM read bursts
system.mem_ctrls.dram.writeBursts             5198025                       # Number of DRAM write bursts
system.mem_ctrls.dram.perBankRdBursts::0       329000                       # Per bank write bursts
system.mem_ctrls.dram.perBankRdBursts::1       329212                       # Per bank write bursts
system.mem_ctrls.dram.perBankRdBursts::2       329192                       # Per bank write bursts
system.mem_ctrls.dram.perBankRdBursts::3       329144                       # Per bank write bursts
system.mem_ctrls.dram.perBankRdBursts::4       329064                       # Per bank write bursts
system.mem_ctrls.dram.perBankRdBursts::5       329144                       # Per bank write bursts
system.mem_ctrls.dram.perBankRdBursts::6       329156                       # Per bank write bursts
system.mem_ctrls.dram.perBankRdBursts::7       329084                       # Per bank write bursts
system.mem_ctrls.dram.perBankRdBursts::8       328928                       # Per bank write bursts
system.mem_ctrls.dram.perBankRdBursts::9       328916                       # Per bank write bursts
system.mem_ctrls.dram.perBankRdBursts::10       328952                       # Per bank write bursts
system.mem_ctrls.dram.perBankRdBursts::11       328976                       # Per bank write bursts
system.mem_ctrls.dram.perBankRdBursts::12       329152                       # Per bank write bursts
system.mem_ctrls.dram.perBankRdBursts::13       329120                       # Per bank write bursts
system.mem_ctrls.dram.perBankRdBursts::14       329108                       # Per bank write bursts
system.mem_ctrls.dram.perBankRdBursts::15       329012                       # Per bank write bursts
system.mem_ctrls.dram.perBankWrBursts::0       324776                       # Per bank write bursts
system.mem_ctrls.dram.perBankWrBursts::1       324956                       # Per bank write bursts
system.mem_ctrls.dram.perBankWrBursts::2       324965                       # Per bank write bursts
system.mem_ctrls.dram.perBankWrBursts::3       325008                       # Per bank write bursts
system.mem_ctrls.dram.perBankWrBursts::4       324916                       # Per bank write bursts
system.mem_ctrls.dram.perBankWrBursts::5       324972                       # Per bank write bursts
system.mem_ctrls.dram.perBankWrBursts::6       324968                       # Per bank write bursts
system.mem_ctrls.dram.perBankWrBursts::7       324948                       # Per bank write bursts
system.mem_ctrls.dram.perBankWrBursts::8       324740                       # Per bank write bursts
system.mem_ctrls.dram.perBankWrBursts::9       324736                       # Per bank write bursts
system.mem_ctrls.dram.perBankWrBursts::10       324736                       # Per bank write bursts
system.mem_ctrls.dram.perBankWrBursts::11       324812                       # Per bank write bursts
system.mem_ctrls.dram.perBankWrBursts::12       324900                       # Per bank write bursts
system.mem_ctrls.dram.perBankWrBursts::13       324892                       # Per bank write bursts
system.mem_ctrls.dram.perBankWrBursts::14       324844                       # Per bank write bursts
system.mem_ctrls.dram.perBankWrBursts::15       324856                       # Per bank write bursts
system.mem_ctrls.dram.totQLat            142689656750                       # Total ticks spent queuing
system.mem_ctrls.dram.totBusLat           26325800000                       # Total ticks spent in databus transfers
system.mem_ctrls.dram.totMemAccLat       241411406750                       # Total ticks spent from burst creation until serviced by the DRAM
system.mem_ctrls.dram.avgQLat                27100.73                       # Average queueing delay per DRAM burst
system.mem_ctrls.dram.avgBusLat               5000.00                       # Average bus latency per DRAM burst
system.mem_ctrls.dram.avgMemAccLat           45850.73                       # Average memory access latency per DRAM burst
system.mem_ctrls.dram.readRowHits             4744596                       # Number of row buffer hits during reads
system.mem_ctrls.dram.writeRowHits            4665342                       # Number of row buffer hits during writes
system.mem_ctrls.dram.readRowHitRate            90.11                       # Row buffer hit rate for reads
system.mem_ctrls.dram.writeRowHitRate           89.75                       # Row buffer hit rate for writes
system.mem_ctrls.dram.bytesPerActivate::samples      1053246                       # Bytes accessed per row activation
system.mem_ctrls.dram.bytesPerActivate::mean   635.790294                       # Bytes accessed per row activation
system.mem_ctrls.dram.bytesPerActivate::gmean   501.756853                       # Bytes accessed per row activation
system.mem_ctrls.dram.bytesPerActivate::stdev   373.563032                       # Bytes accessed per row activation
system.mem_ctrls.dram.bytesPerActivate::0-127        30754      2.92%      2.92% # Bytes accessed per row activation
system.mem_ctrls.dram.bytesPerActivate::128-255        23319      2.21%      5.13% # Bytes accessed per row activation
system.mem_ctrls.dram.bytesPerActivate::256-383       408453     38.78%     43.91% # Bytes accessed per row activation
system.mem_ctrls.dram.bytesPerActivate::384-511         7367      0.70%     44.61% # Bytes accessed per row activation
system.mem_ctrls.dram.bytesPerActivate::512-639        56717      5.38%     50.00% # Bytes accessed per row activation
system.mem_ctrls.dram.bytesPerActivate::640-767        11469      1.09%     51.09% # Bytes accessed per row activation
system.mem_ctrls.dram.bytesPerActivate::768-895        38437      3.65%     54.74% # Bytes accessed per row activation
system.mem_ctrls.dram.bytesPerActivate::896-1023         8194      0.78%     55.52% # Bytes accessed per row activation
system.mem_ctrls.dram.bytesPerActivate::1024-1151       468536     44.48%    100.00% # Bytes accessed per row activation
system.mem_ctrls.dram.bytesPerActivate::total      1053246                       # Bytes accessed per row activation
system.mem_ctrls.dram.bytesRead             336970240                       # Total number of bytes read from DRAM
system.mem_ctrls.dram.bytesWritten          332673600                       # Total number of bytes written to DRAM
system.mem_ctrls.dram.avgRdBW              907.131105                       # Average DRAM read bandwidth in MiBytes/s
system.mem_ctrls.dram.avgWrBW              895.564458                       # Average DRAM write bandwidth in MiBytes/s
system.mem_ctrls.dram.peakBW                 12800.00                       # Theoretical peak bandwidth in MiByte/s
system.mem_ctrls.dram.busUtil                   14.08                       # Data bus utilization in percentage
system.mem_ctrls.dram.busUtilRead                7.09                       # Data bus utilization in percentage for reads
system.mem_ctrls.dram.busUtilWrite               7.00                       # Data bus utilization in percentage for writes
system.mem_ctrls.dram.pageHitRate               89.93                       # Row buffer hit rate, read and write combined
system.mem_ctrls.dram.power_state.pwrStateResidencyTicks::UNDEFINED 371468069000                       # Cumulative time (in ticks) in various power states
system.mem_ctrls.dram.rank0.actEnergy      3761016420                       # Energy for activate commands per rank (pJ)
system.mem_ctrls.dram.rank0.preEnergy      1999023840                       # Energy for precharge commands per rank (pJ)
system.mem_ctrls.dram.rank0.readEnergy    18799591440                       # Energy for read commands per rank (pJ)
system.mem_ctrls.dram.rank0.writeEnergy   13569436980                       # Energy for write commands per rank (pJ)
system.mem_ctrls.dram.rank0.refreshEnergy 29323245120.000004                       # Energy for refresh commands per rank (pJ)
system.mem_ctrls.dram.rank0.actBackEnergy  84269826000                       # Energy for active background per rank (pJ)
system.mem_ctrls.dram.rank0.preBackEnergy  71679674880                       # Energy for precharge background per rank (pJ)
system.mem_ctrls.dram.rank0.actPowerDownEnergy            0                       # Energy for active power-down per rank (pJ)
system.mem_ctrls.dram.rank0.prePowerDownEnergy            0                       # Energy for precharge power-down per rank (pJ)
system.mem_ctrls.dram.rank0.selfRefreshEnergy            0                       # Energy for self refresh per rank (pJ)
system.mem_ctrls.dram.rank0.totalEnergy  223401814680                       # Total energy per rank (pJ)
system.mem_ctrls.dram.rank0.averagePower   601.402471                       # Core power per rank (mW)
system.mem_ctrls.dram.rank0.totalIdleTime            0                       # Total Idle time Per DRAM Rank
system.mem_ctrls.dram.rank0.pwrStateTime::IDLE 182422142750                       # Time in different power states
system.mem_ctrls.dram.rank0.pwrStateTime::REF  12404080000                       # Time in different power states
system.mem_ctrls.dram.rank0.pwrStateTime::SREF            0                       # Time in different power states
system.mem_ctrls.dram.rank0.pwrStateTime::PRE_PDN            0                       # Time in different power states
system.mem_ctrls.dram.rank0.pwrStateTime::ACT 176641846250                       # Time in different power states
system.mem_ctrls.dram.rank0.pwrStateTime::ACT_PDN            0                       # Time in different power states
system.mem_ctrls.dram.rank1.actEnergy      3759167160                       # Energy for activate commands per rank (pJ)
system.mem_ctrls.dram.rank1.preEnergy      1998044730                       # Energy for precharge commands per rank (pJ)
system.mem_ctrls.dram.rank1.readEnergy    18793650960                       # Energy for read commands per rank (pJ)
system.mem_ctrls.dram.rank1.writeEnergy   13564253520                       # Energy for write commands per rank (pJ)
system.mem_ctrls.dram.rank1.refreshEnergy 29323245120.000004                       # Energy for refresh commands per rank (pJ)
system.mem_ctrls.dram.rank1.actBackEnergy  84225193860                       # Energy for active background per rank (pJ)
system.mem_ctrls.dram.rank1.preBackEnergy  71717259840                       # Energy for precharge background per rank (pJ)
system.mem_ctrls.dram.rank1.actPowerDownEnergy            0                       # Energy for active power-down per rank (pJ)
system.mem_ctrls.dram.rank1.prePowerDownEnergy            0                       # Energy for precharge power-down per rank (pJ)
system.mem_ctrls.dram.rank1.selfRefreshEnergy            0                       # Energy for self refresh per rank (pJ)
system.mem_ctrls.dram.rank1.totalEnergy  223380815190                       # Total energy per rank (pJ)
system.mem_ctrls.dram.rank1.averagePower   601.345940                       # Core power per rank (mW)
system.mem_ctrls.dram.rank1.totalIdleTime            0                       # Total Idle time Per DRAM Rank
system.mem_ctrls.dram.rank1.pwrStateTime::IDLE 182522658000                       # Time in different power states
system.mem_ctrls.dram.rank1.pwrStateTime::REF  12404080000                       # Time in different power states
system.mem_ctrls.dram.rank1.pwrStateTime::SREF            0                       # Time in different power states
system.mem_ctrls.dram.rank1.pwrStateTime::PRE_PDN            0                       # Time in different power states
system.mem_ctrls.dram.rank1.pwrStateTime::ACT 176541331000                       # Time in different power states
system.mem_ctrls.dram.rank1.pwrStateTime::ACT_PDN            0                       # Time in different power states
system.mem_ctrls.power_state.pwrStateResidencyTicks::UNDEFINED 371468069000                       # Cumulative time (in ticks) in various power states
system.membus.trans_dist::ReadResp                415                       # Transaction distribution
system.membus.trans_dist::WritebackDirty      1299511                       # Transaction distribution
system.membus.trans_dist::CleanEvict              107                       # Transaction distribution
system.membus.trans_dist::ReadExReq           1315875                       # Transaction distribution
system.membus.trans_dist::ReadExResp          1315875                       # Transaction distribution
system.membus.trans_dist::ReadSharedReq           415                       # Transaction distribution
system.membus.pkt_count_system.l2.mem_side_port::system.mem_ctrls.port      3932198                       # Packet count per connected requestor and responder (bytes)
system.membus.pkt_count::total                3932198                       # Packet count per connected requestor and responder (bytes)
system.membus.pkt_size_system.l2.mem_side_port::system.mem_ctrls.port    669645056                       # Cumulative packet size per connected requestor and responder (bytes)
system.membus.pkt_size::total               669645056                       # Cumulative packet size per connected requestor and responder (bytes)
system.membus.snoops                                0                       # Total snoops (count)
system.membus.snoopTraffic                          0                       # Total snoop traffic (bytes)
system.membus.snoop_fanout::samples           1316290                       # Request fanout histogram
system.membus.snoop_fanout::mean                    0                       # Request fanout histogram
system.membus.snoop_fanout::stdev                   0                       # Request fanout histogram
system.membus.snoop_fanout::underflows              0      0.00%      0.00% # Request fanout histogram
system.membus.snoop_fanout::0                 1316290    100.00%    100.00% # Request fanout histogram
system.membus.snoop_fanout::1                       0      0.00%    100.00% # Request fanout histogram
system.membus.snoop_fanout::overflows               0      0.00%    100.00% # Request fanout histogram
system.membus.snoop_fanout::min_value               0                       # Request fanout histogram
system.membus.snoop_fanout::max_value               0                       # Request fanout histogram
system.membus.snoop_fanout::total             1316290                       # Request fanout histogram
system.membus.power_state.pwrStateResidencyTicks::UNDEFINED 371468069000                       # Cumulative time (in ticks) in various power states
system.membus.reqLayer0.occupancy         23408084000                       # Layer occupancy (ticks)
system.membus.reqLayer0.utilization               6.3                       # Layer utilization (%)
system.membus.respLayer1.occupancy        22792286250                       # Layer occupancy (ticks)
system.membus.respLayer1.utilization              6.1                       # Layer utilization (%)
system.tol2bus.trans_dist::ReadResp               466                       # Transaction distribution
system.tol2bus.trans_dist::WritebackDirty      2614909                       # Transaction distribution
system.tol2bus.trans_dist::CleanEvict             560                       # Transaction distribution
system.tol2bus.trans_dist::ReadExReq          1315881                       # Transaction distribution
system.tol2bus.trans_dist::ReadExResp         1315881                       # Transaction distribution
system.tol2bus.trans_dist::ReadCleanReq           272                       # Transaction distribution
system.tol2bus.trans_dist::ReadSharedReq          194                       # Transaction distribution
system.tol2bus.pkt_count_system.cpu.icache.mem_side_port::system.l2.cpu_side_port          544                       # Packet count per connected requestor and responder (bytes)
system.tol2bus.pkt_count_system.cpu.dcache.mem_side_port::system.l2.cpu_side_port      3947713                       # Packet count per connected requestor and responder (bytes)
system.tol2bus.pkt_count::total               3948257                       # Packet count per connected requestor and responder (bytes)
system.tol2bus.pkt_size_system.cpu.icache.mem_side_port::system.l2.cpu_side_port        69632                       # Cumulative packet size per connected requestor and responder (bytes)
system.tol2bus.pkt_size_system.cpu.dcache.mem_side_port::system.l2.cpu_side_port    673657088                       # Cumulative packet size per connected requestor and responder (bytes)
system.tol2bus.pkt_size::total              673726720                       # Cumulative packet size per connected requestor and responder (bytes)
system.tol2bus.snoops                         1299906                       # Total snoops (count)
system.tol2bus.snoopTraffic                 332674816                       # Total snoop traffic (bytes)
system.tol2bus.snoop_fanout::samples          2616253                       # Request fanout histogram
system.tol2bus.snoop_fanout::mean            0.000131                       # Request fanout histogram
system.tol2bus.snoop_fanout::stdev           0.011466                       # Request fanout histogram
system.tol2bus.snoop_fanout::underflows             0      0.00%      0.00% # Request fanout histogram
system.tol2bus.snoop_fanout::0                2615909     99.99%     99.99% # Request fanout histogram
system.tol2bus.snoop_fanout::1                    344      0.01%    100.00% # Request fanout histogram
system.tol2bus.snoop_fanout::2                      0      0.00%    100.00% # Request fanout histogram
system.tol2bus.snoop_fanout::overflows              0      0.00%    100.00% # Request fanout histogram
system.tol2bus.snoop_fanout::min_value              0                       # Request fanout histogram
system.tol2bus.snoop_fanout::max_value              1                       # Request fanout histogram
system.tol2bus.snoop_fanout::total            2616253                       # Request fanout histogram
system.tol2bus.power_state.pwrStateResidencyTicks::UNDEFINED 371468069000                       # Cumulative time (in ticks) in various power states
system.tol2bus.reqLayer0.occupancy        13155094000                       # Layer occupancy (ticks)
system.tol2bus.reqLayer0.utilization              3.5                       # Layer utilization (%)
system.tol2bus.respLayer0.occupancy           2448999                       # Layer occupancy (ticks)
system.tol2bus.respLayer0.utilization             0.0                       # Layer utilization (%)
system.tol2bus.respLayer1.occupancy       11844682992                       # Layer occupancy (ticks)
system.tol2bus.respLayer1.utilization             3.2                       # Layer utilization (%)
system.voltage_domain.voltage                       1                       # Voltage in Volts

---------- End Simulation Statistics   ----------
